sad/pglib_opf_case6515_rte__sad.m
%%%%%%%%%%%%%%%%%%%%%%%%%%%%%%%%%%%%%%%%%%%%%%%%%%%%%%%%%%%%%%%%%%%%%%%%%%%
%%%%                                                                  %%%%%
%%%%    IEEE PES Power Grid Library - Optimal Power Flow - v17.08     %%%%%
%%%%          (https://github.com/power-grid-lib/pglib-opf)           %%%%%
%%%%             Benchmark Group - Small Angle Difference             %%%%%
%%%%                        29 - August - 2017                        %%%%%
%%%%                                                                  %%%%%
%%%%%%%%%%%%%%%%%%%%%%%%%%%%%%%%%%%%%%%%%%%%%%%%%%%%%%%%%%%%%%%%%%%%%%%%%%%

function mpc = pglib_opf_case6515_rte__sad
mpc.version = '2';
mpc.baseMVA = 100.0;

%% bus data
%	bus_i	type	Pd	Qd	Gs	Bs	area	Vm	Va	baseKV	zone	Vmax	Vmin
mpc.bus = [
	1	 1	 0.0	 0.0	 0.0	 0.0	 1	    0.94444	    0.00000	 45.0	 1	    1.00000	    0.88889;
	2	 1	 0.0	 0.0	 0.0	 0.0	 1	    1.00000	    0.00000	 63.0	 1	    1.06349	    0.93651;
	3	 1	 14.8	 3.8	 0.0	 0.0	 1	    1.01588	    0.00000	 63.0	 1	    1.07937	    0.95238;
	4	 1	 49.6	 2.8	 0.0	 0.0	 1	    1.01111	    0.00000	 90.0	 1	    1.08889	    0.93333;
	5	 1	 12.9	 0.9	 0.0	 0.0	 1	    1.00794	    0.00000	 63.0	 1	    1.06349	    0.95238;
	6	 1	 13.0	 5.3	 0.0	 0.0	 1	    1.00000	    0.00000	 63.0	 1	    1.07937	    0.92063;
	7	 1	 2.3	 0.2	 0.0	 0.0	 1	    1.00000	    0.00000	 63.0	 1	    1.07937	    0.92063;
	8	 1	 15.8	 -0.3	 0.0	 0.0	 1	    0.98889	    0.00000	 225.0	 1	    1.08889	    0.88889;
	9	 1	 14.9	 0.0	 0.0	 0.0	 1	    1.00000	    0.00000	 63.0	 1	    1.06349	    0.93651;
	10	 1	 0.0	 0.0	 0.0	 0.0	 1	    1.00000	    0.00000	 90.0	 1	    1.07778	    0.92222;
	11	 1	 33.2	 4.9	 0.0	 0.0	 1	    1.00000	    0.00000	 90.0	 1	    1.07778	    0.92222;
	12	 1	 0.0	 0.0	 0.0	 0.0	 1	    1.01588	    0.00000	 63.0	 1	    1.07937	    0.95238;
	13	 1	 0.0	 0.0	 0.0	 0.0	 1	    1.07767	    0.00000	 380.0	 1	    1.10263	    1.05271;
	14	 1	 63.2	 13.3	 0.0	 30.4	 1	    1.02778	    0.00000	 90.0	 1	    1.07778	    0.97778;
	15	 1	 0.0	 0.0	 0.0	 0.0	 1	    1.00000	    0.00000	 63.0	 1	    1.07937	    0.92063;
	16	 1	 13.9	 1.9	 0.0	 0.0	 1	    1.00000	    0.00000	 63.0	 1	    1.07937	    0.92063;
	17	 1	 10.9	 0.1	 0.0	 0.0	 1	    1.02222	    0.00000	 90.0	 1	    1.06667	    0.97778;
	18	 1	 0.0	 0.0	 0.0	 0.0	 1	    0.94444	    0.00000	 45.0	 1	    1.00000	    0.88889;
	19	 1	 1.0	 0.0	 0.0	 0.0	 1	    1.00000	    0.00000	 63.0	 1	    1.06349	    0.93651;
	20	 1	 5.6	 -18.0	 0.0	 0.0	 1	    0.94444	    0.00000	 45.0	 1	    1.00000	    0.88889;
	21	 1	 7.6	 -1.6	 0.0	 0.0	 1	    1.02222	    0.00000	 90.0	 1	    1.06667	    0.97778;
	22	 1	 18.5	 1.0	 0.0	 0.0	 1	    1.01588	    0.00000	 63.0	 1	    1.07937	    0.95238;
	23	 1	 22.4	 2.2	 0.0	 0.0	 1	    1.00000	    0.00000	 63.0	 1	    1.06349	    0.93651;
	24	 1	 17.0	 -1.5	 0.0	 0.0	 1	    1.03333	    0.00000	 90.0	 1	    1.11111	    0.95556;
	25	 1	 54.7	 -1.1	 0.0	 0.0	 1	    1.02222	    0.00000	 90.0	 1	    1.10000	    0.94444;
	26	 1	 15.1	 10.6	 0.0	 0.0	 1	    1.02222	    0.00000	 90.0	 1	    1.06667	    0.97778;
	27	 1	 0.0	 0.0	 0.0	 0.0	 1	    1.04444	    0.00000	 225.0	 1	    1.08444	    1.00444;
	28	 1	 0.9	 -0.2	 0.0	 0.0	 1	    1.01588	    0.00000	 63.0	 1	    1.07937	    0.95238;
	29	 1	 76.5	 9.4	 0.0	 0.0	 1	    1.01587	    0.00000	 63.0	 1	    1.06349	    0.96825;
	30	 1	 39.9	 3.5	 0.0	 0.0	 1	    1.01111	    0.00000	 90.0	 1	    1.08889	    0.93333;
	31	 1	 0.0	 0.0	 0.0	 0.0	 1	    1.00000	    0.00000	 63.0	 1	    1.06349	    0.93651;
	32	 1	 0.0	 0.0	 0.0	 0.0	 1	    1.00334	    0.00000	 150.0	 1	    1.10667	    0.90000;
	33	 1	 0.0	 0.0	 0.0	 0.0	 1	    1.01111	    0.00000	 225.0	 1	    1.08889	    0.93333;
	34	 1	 0.0	 0.0	 0.0	 0.0	 1	    1.01111	    0.00000	 225.0	 1	    1.08889	    0.93333;
	35	 1	 0.0	 0.0	 0.0	 0.0	 1	    1.07237	    0.00000	 380.0	 1	    1.10526	    1.03947;
	36	 1	 0.0	 0.0	 0.0	 0.0	 1	    1.07237	    0.00000	 380.0	 1	    1.10526	    1.03947;
	37	 1	 -2.7	 3.0	 0.0	 0.0	 1	    1.00000	    0.00000	 63.0	 1	    1.07937	    0.92063;
	38	 1	 5.0	 -1.0	 0.0	 0.0	 1	    1.01587	    0.00000	 63.0	 1	    1.09524	    0.93651;
	39	 1	 43.6	 -2.9	 0.0	 0.0	 1	    1.02778	    0.00000	 90.0	 1	    1.07778	    0.97778;
	40	 1	 38.1	 4.1	 0.0	 0.0	 1	    1.02778	    0.00000	 90.0	 1	    1.07778	    0.97778;
	41	 1	 0.0	 0.0	 0.0	 0.0	 1	    1.04666	    0.00000	 225.0	 1	    1.08889	    1.00444;
	42	 1	 0.0	 0.0	 0.0	 0.0	 1	    1.04169	    0.00000	 63.0	 1	    1.13099	    0.95238;
	43	 1	 3.2	 2.7	 0.0	 0.0	 1	    1.02778	    0.00000	 90.0	 1	    1.07778	    0.97778;
	44	 1	 13.3	 0.1	 0.0	 0.0	 1	    1.00794	    0.00000	 63.0	 1	    1.06349	    0.95238;
	45	 1	 3.8	 1.6	 0.0	 0.0	 1	    1.02222	    0.00000	 90.0	 1	    1.06667	    0.97778;
	46	 1	 0.0	 0.0	 0.0	 0.0	 1	    1.00000	    0.00000	 63.0	 1	    1.06349	    0.93651;
	47	 2	 0.0	 0.0	 0.0	 0.0	 1	    1.00000	    0.00000	 63.0	 1	    1.06349	    0.93651;
	48	 1	 40.4	 5.6	 0.0	 0.0	 1	    1.00000	    0.00000	 90.0	 1	    1.07778	    0.92222;
	49	 1	 9.8	 -1.9	 0.0	 0.0	 1	    1.00000	    0.00000	 63.0	 1	    1.06349	    0.93651;
	50	 1	 0.0	 0.0	 0.0	 0.0	 1	    1.00289	    0.00000	 63.0	 1	    1.06927	    0.93651;
	51	 1	 0.0	 0.0	 0.0	 0.0	 1	    1.01111	    0.00000	 225.0	 1	    1.08889	    0.93333;
	52	 1	 6.5	 2.9	 0.0	 0.0	 1	    1.02222	    0.00000	 90.0	 1	    1.06667	    0.97778;
	53	 1	 0.0	 -1.3	 0.0	 0.0	 1	    1.00000	    0.00000	 63.0	 1	    1.04762	    0.95238;
	54	 1	 0.3	 -0.3	 0.0	 0.0	 1	    1.02222	    0.00000	 90.0	 1	    1.06667	    0.97778;
	55	 1	 50.9	 12.3	 0.0	 0.0	 1	    1.04666	    0.00000	 225.0	 1	    1.08889	    1.00444;
	56	 1	 75.5	 20.5	 0.0	 0.0	 1	    1.04666	    0.00000	 225.0	 1	    1.08889	    1.00444;
	57	 2	 0.0	 0.0	 0.0	 0.0	 1	    1.00000	    0.00000	 63.0	 1	    1.07937	    0.92063;
	58	 1	 154.0	 36.4	 0.0	 0.0	 1	    1.04666	    0.00000	 225.0	 1	    1.08889	    1.00444;
	59	 1	 5.0	 1.0	 0.0	 0.0	 1	    1.01588	    0.00000	 63.0	 1	    1.07937	    0.95238;
	60	 1	 0.0	 0.0	 0.0	 0.0	 1	    1.01588	    0.00000	 63.0	 1	    1.07937	    0.95238;
	61	 1	 46.3	 11.9	 0.0	 0.0	 1	    1.01588	    0.00000	 63.0	 1	    1.07937	    0.95238;
	62	 1	 0.0	 0.0	 0.0	 0.0	 1	    1.01588	    0.00000	 63.0	 1	    1.07937	    0.95238;
	63	 1	 16.8	 2.9	 0.0	 0.0	 1	    1.01588	    0.00000	 63.0	 1	    1.07937	    0.95238;
	64	 1	 67.3	 7.1	 0.0	 0.0	 1	    0.98889	    0.00000	 225.0	 1	    1.08889	    0.88889;
	65	 1	 12.0	 2.8	 0.0	 0.0	 1	    1.01588	    0.00000	 63.0	 1	    1.07937	    0.95238;
	66	 1	 13.0	 -6.4	 0.0	 0.0	 1	    1.00000	    0.00000	 63.0	 1	    1.06349	    0.93651;
	67	 1	 1.0	 0.0	 0.0	 0.0	 1	    1.00000	    0.00000	 63.0	 1	    1.07937	    0.92063;
	68	 1	 53.1	 1.1	 0.0	 0.0	 1	    1.00000	    0.00000	 63.0	 1	    1.06349	    0.93651;
	69	 1	 20.8	 1.3	 0.0	 0.0	 1	    1.00794	    0.00000	 63.0	 1	    1.06349	    0.95238;
	70	 1	 10.6	 4.2	 0.0	 0.0	 1	    1.01588	    0.00000	 63.0	 1	    1.07937	    0.95238;
	71	 1	 69.4	 17.5	 0.0	 0.0	 1	    1.00000	    0.00000	 63.0	 1	    1.04762	    0.95238;
	72	 1	 0.0	 0.0	 0.0	 0.0	 1	    1.04666	    0.00000	 225.0	 1	    1.08889	    1.00444;
	73	 1	 0.0	 0.0	 0.0	 0.0	 1	    1.04666	    0.00000	 225.0	 1	    1.08889	    1.00444;
	74	 1	 58.8	 -5.0	 0.0	 0.0	 1	    0.98889	    0.00000	 225.0	 1	    1.08889	    0.88889;
	75	 1	 25.2	 1.9	 0.0	 0.0	 1	    1.02222	    0.00000	 90.0	 1	    1.06667	    0.97778;
	76	 1	 5.9	 -2.1	 0.0	 0.0	 1	    1.03778	    0.00000	 225.0	 1	    1.08889	    0.98667;
	77	 1	 43.7	 0.4	 0.0	 0.0	 1	    1.00000	    0.00000	 63.0	 1	    1.06349	    0.93651;
	78	 1	 0.0	 0.0	 0.0	 0.0	 1	    1.00000	    0.00000	 63.0	 1	    1.07937	    0.92063;
	79	 1	 0.0	 0.0	 0.0	 0.0	 1	    1.00000	    0.00000	 63.0	 1	    1.04762	    0.95238;
	80	 1	 32.4	 10.5	 0.0	 0.0	 1	    1.04666	    0.00000	 225.0	 1	    1.08889	    1.00444;
	81	 1	 32.4	 9.1	 0.0	 0.0	 1	    1.04666	    0.00000	 225.0	 1	    1.08889	    1.00444;
	82	 1	 11.3	 0.3	 0.0	 0.0	 1	    1.00000	    0.00000	 63.0	 1	    1.06349	    0.93651;
	83	 1	 79.0	 24.8	 0.0	 0.0	 1	    1.04666	    0.00000	 225.0	 1	    1.08889	    1.00444;
	84	 1	 -0.1	 0.4	 0.0	 0.0	 1	    1.00000	    0.00000	 63.0	 1	    1.06349	    0.93651;
	85	 1	 0.7	 -1.5	 0.0	 0.0	 1	    1.00000	    0.00000	 63.0	 1	    1.06349	    0.93651;
	86	 1	 48.8	 5.2	 0.0	 0.0	 1	    1.02222	    0.00000	 90.0	 1	    1.06667	    0.97778;
	87	 1	 0.0	 0.0	 0.0	 0.0	 1	    1.01588	    0.00000	 63.0	 1	    1.07937	    0.95238;
	88	 1	 14.8	 -1.2	 0.0	 0.0	 1	    1.00000	    0.00000	 63.0	 1	    1.06349	    0.93651;
	89	 1	 26.2	 0.3	 0.0	 0.0	 1	    1.02778	    0.00000	 90.0	 1	    1.07778	    0.97778;
	90	 1	 0.2	 -2.3	 0.0	 0.0	 1	    0.94444	    0.00000	 45.0	 1	    1.00000	    0.88889;
	91	 1	 0.0	 0.0	 0.0	 0.0	 1	    0.94444	    0.00000	 45.0	 1	    1.00000	    0.88889;
	92	 1	 31.8	 1.1	 0.0	 0.0	 1	    1.01587	    0.00000	 63.0	 1	    1.06349	    0.96825;
	93	 1	 2.0	 -2.8	 0.0	 0.0	 1	    0.94444	    0.00000	 45.0	 1	    1.00000	    0.88889;
	94	 1	 18.2	 -4.0	 0.0	 0.0	 1	    1.02222	    0.00000	 90.0	 1	    1.06667	    0.97778;
	95	 1	 57.2	 9.4	 0.0	 0.0	 1	    1.02222	    0.00000	 90.0	 1	    1.06667	    0.97778;
	96	 1	 0.9	 -0.2	 0.0	 0.0	 1	    1.00000	    0.00000	 63.0	 1	    1.06349	    0.93651;
	97	 1	 57.7	 3.8	 0.0	 0.0	 1	    1.00000	    0.00000	 63.0	 1	    1.07937	    0.92063;
	98	 1	 9.5	 1.0	 0.0	 0.0	 1	    1.01588	    0.00000	 63.0	 1	    1.07937	    0.95238;
	99	 1	 35.8	 5.9	 0.0	 0.0	 1	    1.01588	    0.00000	 63.0	 1	    1.07937	    0.95238;
	100	 1	 63.0	 7.8	 0.0	 0.0	 1	    1.00000	    0.00000	 63.0	 1	    1.06349	    0.93651;
	101	 1	 17.3	 -0.8	 0.0	 0.0	 1	    1.00000	    0.00000	 63.0	 1	    1.06349	    0.93651;
	102	 2	 0.0	 0.0	 0.0	 0.0	 1	    1.01588	    0.00000	 63.0	 1	    1.07937	    0.95238;
	103	 1	 12.6	 -1.2	 0.0	 0.0	 1	    1.01588	    0.00000	 63.0	 1	    1.07937	    0.95238;
	104	 1	 0.0	 0.0	 0.0	 0.0	 1	    1.03778	    0.00000	 225.0	 1	    1.08889	    0.98667;
	105	 1	 36.9	 2.2	 0.0	 0.0	 1	    0.98889	    0.00000	 225.0	 1	    1.08889	    0.88889;
	106	 1	 58.2	 10.7	 0.0	 0.0	 1	    1.02222	    0.00000	 90.0	 1	    1.10000	    0.94444;
	107	 1	 107.0	 14.3	 0.0	 0.0	 1	    1.04666	    0.00000	 225.0	 1	    1.08444	    1.00889;
	108	 1	 12.2	 -2.4	 0.0	 0.0	 1	    1.02778	    0.00000	 90.0	 1	    1.07778	    0.97778;
	109	 1	 67.8	 8.7	 0.0	 0.0	 1	    1.00000	    0.00000	 63.0	 1	    1.06349	    0.93651;
	110	 1	 0.0	 0.0	 0.0	 0.0	 1	    1.01111	    0.00000	 225.0	 1	    1.08889	    0.93333;
	111	 1	 38.7	 -7.5	 0.0	 0.0	 1	    1.01587	    0.00000	 63.0	 1	    1.06349	    0.96825;
	112	 1	 0.0	 0.0	 0.0	 0.0	 1	    1.00000	    0.00000	 63.0	 1	    1.04762	    0.95238;
	113	 1	 0.0	 0.0	 0.0	 0.0	 1	    1.04666	    0.00000	 225.0	 1	    1.08889	    1.00444;
	114	 1	 13.4	 1.1	 0.0	 0.0	 1	    1.00000	    0.00000	 63.0	 1	    1.06349	    0.93651;
	115	 1	 0.0	 0.0	 0.0	 0.0	 1	    1.07895	    0.00000	 380.0	 1	    1.10526	    1.05263;
	116	 1	 0.0	 0.0	 0.0	 0.0	 1	    1.07895	    0.00000	 380.0	 1	    1.10526	    1.05263;
	117	 1	 14.9	 0.2	 0.0	 0.0	 1	    1.01588	    0.00000	 63.0	 1	    1.07937	    0.95238;
	118	 1	 2.0	 0.7	 0.0	 0.0	 1	    1.02222	    0.00000	 90.0	 1	    1.06667	    0.97778;
	119	 1	 40.6	 6.9	 0.0	 0.0	 1	    1.00000	    0.00000	 63.0	 1	    1.06349	    0.93651;
	120	 1	 22.0	 -2.3	 0.0	 0.0	 1	    1.00000	    0.00000	 63.0	 1	    1.06349	    0.93651;
	121	 1	 20.8	 1.4	 0.0	 0.0	 1	    1.00000	    0.00000	 63.0	 1	    1.07937	    0.92063;
	122	 2	 0.0	 0.0	 0.0	 0.0	 1	    1.01588	    0.00000	 63.0	 1	    1.07937	    0.95238;
	123	 1	 12.0	 4.6	 0.0	 0.0	 1	    1.01588	    0.00000	 63.0	 1	    1.07937	    0.95238;
	124	 1	 8.0	 -0.4	 0.0	 0.0	 1	    1.02222	    0.00000	 90.0	 1	    1.06667	    0.97778;
	125	 1	 11.1	 0.4	 0.0	 0.0	 1	    1.01588	    0.00000	 63.0	 1	    1.07937	    0.95238;
	126	 1	 0.2	 0.8	 0.0	 0.0	 1	    1.00000	    0.00000	 63.0	 1	    1.06349	    0.93651;
	127	 1	 14.7	 2.7	 0.0	 0.0	 1	    1.00000	    0.00000	 63.0	 1	    1.04762	    0.95238;
	128	 1	 13.8	 7.2	 0.0	 0.0	 1	    1.01587	    0.00000	 63.0	 1	    1.06349	    0.96825;
	129	 1	 19.1	 10.8	 0.0	 0.0	 1	    1.01587	    0.00000	 63.0	 1	    1.06349	    0.96825;
	130	 1	 0.0	 0.0	 0.0	 0.0	 1	    1.04666	    0.00000	 225.0	 1	    1.08444	    1.00889;
	131	 1	 119.3	 12.0	 0.0	 0.0	 1	    1.04666	    0.00000	 225.0	 1	    1.08444	    1.00889;
	132	 2	 9.4	 0.0	 0.0	 0.0	 1	    1.00000	    0.00000	 90.0	 1	    1.07778	    0.92222;
	133	 1	 2.7	 0.4	 0.0	 0.0	 1	    1.00000	    0.00000	 63.0	 1	    1.04762	    0.95238;
	134	 1	 101.1	 27.4	 0.0	 0.0	 1	    1.04666	    0.00000	 225.0	 1	    1.08889	    1.00444;
	135	 1	 0.0	 0.0	 0.0	 0.0	 1	    1.04666	    0.00000	 225.0	 1	    1.08889	    1.00444;
	136	 1	 23.9	 1.4	 0.0	 0.0	 1	    1.02778	    0.00000	 90.0	 1	    1.07778	    0.97778;
	137	 2	 8.7	 -3.0	 0.0	 0.0	 1	    1.01587	    0.00000	 63.0	 1	    1.06349	    0.96825;
	138	 1	 0.0	 0.0	 0.0	 0.0	 1	    1.02333	    0.00000	 150.0	 1	    1.08000	    0.96667;
	139	 1	 8.0	 7.1	 0.0	 0.0	 1	    1.00000	    0.00000	 63.0	 1	    1.07937	    0.92063;
	140	 1	 0.0	 0.0	 0.0	 80.0	 1	    1.04445	    0.00000	 225.0	 1	    1.08889	    1.00000;
	141	 1	 0.0	 0.0	 0.0	 0.0	 1	    1.07895	    0.00000	 380.0	 1	    1.10526	    1.05263;
	142	 1	 22.4	 7.4	 0.0	 0.0	 1	    1.01588	    0.00000	 63.0	 1	    1.07937	    0.95238;
	143	 1	 0.0	 0.0	 0.0	 0.0	 1	    1.03778	    0.00000	 225.0	 1	    1.08889	    0.98667;
	144	 1	 16.0	 5.0	 0.0	 0.0	 1	    1.03333	    0.00000	 90.0	 1	    1.11111	    0.95556;
	145	 1	 23.4	 9.0	 0.0	 0.0	 1	    1.02889	    0.00000	 225.0	 1	    1.08889	    0.96889;
	146	 1	 0.0	 0.0	 0.0	 0.0	 1	    1.05263	    0.00000	 380.0	 1	    1.10526	    1.00000;
	147	 1	 30.0	 5.5	 0.0	 0.0	 1	    1.00000	    0.00000	 63.0	 1	    1.06349	    0.93651;
	148	 1	 6.6	 1.2	 0.0	 0.0	 1	    1.00000	    0.00000	 63.0	 1	    1.06349	    0.93651;
	149	 1	 16.9	 4.1	 0.0	 0.0	 1	    1.02222	    0.00000	 90.0	 1	    1.06667	    0.97778;
	150	 1	 48.5	 3.2	 0.0	 0.0	 1	    1.00000	    0.00000	 63.0	 1	    1.06349	    0.93651;
	151	 1	 0.0	 0.0	 0.0	 0.0	 1	    1.01587	    0.00000	 63.0	 1	    1.06349	    0.96825;
	152	 1	 45.3	 12.0	 0.0	 7.7	 1	    1.01587	    0.00000	 63.0	 1	    1.06349	    0.96825;
	153	 1	 27.3	 -5.5	 0.0	 0.0	 1	    1.00000	    0.00000	 63.0	 1	    1.06349	    0.93651;
	154	 1	 0.0	 0.0	 0.0	 0.0	 1	    1.01111	    0.00000	 225.0	 1	    1.08889	    0.93333;
	155	 2	 0.0	 0.0	 0.0	 0.0	 1	    1.00000	    0.00000	 63.0	 1	    1.07937	    0.92063;
	156	 1	 0.0	 0.0	 0.0	 0.0	 1	    1.01587	    0.00000	 63.0	 1	    1.06349	    0.96825;
	157	 1	 0.0	 -2.2	 0.0	 0.0	 1	    0.94444	    0.00000	 45.0	 1	    1.00000	    0.88889;
	158	 2	 0.0	 0.0	 0.0	 0.0	 1	    0.94444	    0.00000	 45.0	 1	    1.00000	    0.88889;
	159	 1	 0.0	 0.0	 0.0	 0.0	 1	    1.00000	    0.00000	 63.0	 1	    1.06349	    0.93651;
	160	 1	 41.7	 5.9	 0.0	 0.0	 1	    0.98889	    0.00000	 225.0	 1	    1.08889	    0.88889;
	161	 1	 43.7	 10.0	 0.0	 0.0	 1	    0.98889	    0.00000	 225.0	 1	    1.08889	    0.88889;
	162	 1	 -0.3	 -1.6	 0.0	 0.0	 1	    1.02222	    0.00000	 90.0	 1	    1.06667	    0.97778;
	163	 1	 0.0	 0.0	 0.0	 0.0	 1	    1.01588	    0.00000	 63.0	 1	    1.07937	    0.95238;
	164	 1	 0.0	 0.0	 0.0	 0.0	 1	    1.01588	    0.00000	 63.0	 1	    1.07937	    0.95238;
	165	 1	 16.5	 14.6	 0.0	 0.0	 1	    0.97500	    0.00000	 20.0	 1	    1.15000	    0.80000;
	166	 1	 13.3	 3.2	 0.0	 0.0	 1	    1.02222	    0.00000	 90.0	 1	    1.06667	    0.97778;
	167	 1	 17.8	 -0.8	 0.0	 0.0	 1	    1.02222	    0.00000	 90.0	 1	    1.06667	    0.97778;
	168	 1	 0.0	 0.0	 0.0	 0.0	 1	    1.04444	    0.00000	 225.0	 1	    1.08444	    1.00444;
	169	 1	 9.9	 -0.9	 0.0	 0.0	 1	    1.02222	    0.00000	 90.0	 1	    1.06667	    0.97778;
	170	 1	 79.8	 13.5	 0.0	 0.0	 1	    1.02778	    0.00000	 90.0	 1	    1.07778	    0.97778;
	171	 1	 28.0	 0.8	 0.0	 30.0	 1	    1.02778	    0.00000	 90.0	 1	    1.07778	    0.97778;
	172	 1	 0.0	 0.0	 0.0	 0.0	 1	    1.04666	    0.00000	 225.0	 1	    1.08889	    1.00444;
	173	 1	 28.5	 8.0	 0.0	 0.0	 1	    1.01111	    0.00000	 90.0	 1	    1.08889	    0.93333;
	174	 1	 59.7	 11.6	 0.0	 0.0	 1	    1.03333	    0.00000	 90.0	 1	    1.11111	    0.95556;
	175	 1	 0.0	 0.0	 0.0	 0.0	 1	    1.00000	    0.00000	 63.0	 1	    1.07937	    0.92063;
	176	 2	 0.0	 0.0	 0.0	 0.0	 1	    1.00000	    0.00000	 150.0	 1	    1.10000	    0.90000;
	177	 1	 0.0	 0.0	 0.0	 0.0	 1	    1.04666	    0.00000	 225.0	 1	    1.08889	    1.00444;
	178	 1	 0.0	 0.0	 0.0	 0.0	 1	    1.04666	    0.00000	 225.0	 1	    1.08889	    1.00444;
	179	 1	 0.0	 0.0	 0.0	 0.0	 1	    1.00000	    0.00000	 63.0	 1	    1.04762	    0.95238;
	180	 1	 0.0	 0.0	 0.0	 0.0	 1	    1.04666	    0.00000	 225.0	 1	    1.08889	    1.00444;
	181	 1	 12.7	 -5.3	 0.0	 0.0	 1	    1.00000	    0.00000	 63.0	 1	    1.07937	    0.92063;
	182	 1	 16.0	 3.1	 0.0	 0.0	 1	    1.00000	    0.00000	 63.0	 1	    1.06349	    0.93651;
	183	 1	 5.5	 -1.7	 0.0	 0.0	 1	    1.01588	    0.00000	 63.0	 1	    1.07937	    0.95238;
	184	 1	 5.0	 1.4	 0.0	 0.0	 1	    1.02778	    0.00000	 90.0	 1	    1.07778	    0.97778;
	185	 1	 30.6	 2.7	 0.0	 0.0	 1	    1.01588	    0.00000	 63.0	 1	    1.07937	    0.95238;
	186	 1	 1.2	 0.2	 0.0	 0.0	 1	    1.02222	    0.00000	 90.0	 1	    1.06667	    0.97778;
	187	 2	 0.0	 0.0	 0.0	 0.0	 1	    1.00000	    0.00000	 63.0	 1	    1.07937	    0.92063;
	188	 1	 0.0	 0.0	 0.0	 0.0	 1	    1.00969	    0.00000	 63.0	 1	    1.09875	    0.92063;
	189	 1	 16.8	 1.8	 0.0	 0.0	 1	    1.00000	    0.00000	 63.0	 1	    1.07937	    0.92063;
	190	 2	 0.0	 0.0	 0.0	 0.0	 1	    0.94444	    0.00000	 45.0	 1	    1.00000	    0.88889;
	191	 1	 15.4	 -1.1	 0.0	 0.0	 1	    1.02222	    0.00000	 90.0	 1	    1.06667	    0.97778;
	192	 1	 9.9	 -0.0	 0.0	 0.0	 1	    1.00000	    0.00000	 63.0	 1	    1.07937	    0.92063;
	193	 1	 0.1	 0.7	 0.0	 0.0	 1	    1.04666	    0.00000	 225.0	 1	    1.08889	    1.00444;
	194	 2	 0.7	 -1.6	 0.0	 0.0	 1	    1.00000	    0.00000	 63.0	 1	    1.07937	    0.92063;
	195	 1	 0.0	 0.0	 0.0	 0.0	 1	    1.00800	    0.00000	 63.0	 1	    1.06362	    0.95238;
	196	 1	 0.0	 0.0	 0.0	 0.0	 1	    1.00800	    0.00000	 63.0	 1	    1.06362	    0.95238;
	197	 1	 27.5	 -0.6	 0.0	 15.0	 1	    1.00000	    0.00000	 63.0	 1	    1.07937	    0.92063;
	198	 1	 11.1	 -0.8	 0.0	 0.0	 1	    1.00000	    0.00000	 63.0	 1	    1.07937	    0.92063;
	199	 1	 12.6	 2.7	 0.0	 0.0	 1	    1.02222	    0.00000	 90.0	 1	    1.06667	    0.97778;
	200	 1	 0.0	 0.0	 0.0	 0.0	 1	    1.04445	    0.00000	 225.0	 1	    1.08889	    1.00000;
...
];

%% generator data
%	bus	Pg	Qg	Qmax	Qmin	Vg	mBase	status	Pmax	Pmin	Pc1	Pc2	Qc1min	Qc1max	Qc2min	Qc2max	ramp_agc	ramp_10	ramp_30	ramp_q	apf
mpc.gen = [
	4	 6.0	 0.0	 0.0	 0.0	 1.025	 100.0	 0	 12.0	 0.0	 0.0	 0.0	 0.0	 0.0	 0.0	 0.0	 0.0	 0.0	 0.0	 0.0	 0.0;
	4	 5.0	 0.0	 0.0	 0.0	 1.025	 100.0	 0	 10.0	 0.0	 0.0	 0.0	 0.0	 0.0	 0.0	 0.0	 0.0	 0.0	 0.0	 0.0	 0.0;
	5	 4.55	 0.0	 0.0	 0.0	 1.016	 100.0	 0	 9.1	 0.0	 0.0	 0.0	 0.0	 0.0	 0.0	 0.0	 0.0	 0.0	 0.0	 0.0	 0.0;
	11	 14.0	 0.0	 0.0	 0.0	 1.014	 100.0	 1	 28.0	 0.0	 0.0	 0.0	 0.0	 0.0	 0.0	 0.0	 0.0	 0.0	 0.0	 0.0	 0.0;
	11	 9.0	 0.0	 0.0	 0.0	 1.014	 100.0	 0	 18.0	 0.0	 0.0	 0.0	 0.0	 0.0	 0.0	 0.0	 0.0	 0.0	 0.0	 0.0	 0.0;
	17	 4.1	 0.0	 0.0	 0.0	 1.045	 100.0	 0	 8.2	 0.0	 0.0	 0.0	 0.0	 0.0	 0.0	 0.0	 0.0	 0.0	 0.0	 0.0	 0.0;
	19	 0.6	 0.0	 0.0	 0.0	 1.02	 100.0	 0	 1.2	 0.0	 0.0	 0.0	 0.0	 0.0	 0.0	 0.0	 0.0	 0.0	 0.0	 0.0	 0.0;
	22	 5.0	 0.0	 0.0	 0.0	 1.007	 100.0	 0	 10.0	 0.0	 0.0	 0.0	 0.0	 0.0	 0.0	 0.0	 0.0	 0.0	 0.0	 0.0	 0.0;
	24	 8.05	 0.0	 0.0	 0.0	 1.027	 100.0	 0	 16.1	 0.0	 0.0	 0.0	 0.0	 0.0	 0.0	 0.0	 0.0	 0.0	 0.0	 0.0	 0.0;
	24	 17.75	 0.0	 0.0	 0.0	 1.027	 100.0	 0	 35.5	 0.0	 0.0	 0.0	 0.0	 0.0	 0.0	 0.0	 0.0	 0.0	 0.0	 0.0	 0.0;
	25	 18.0	 0.0	 0.0	 0.0	 1.064	 100.0	 1	 36.0	 0.0	 0.0	 0.0	 0.0	 0.0	 0.0	 0.0	 0.0	 0.0	 0.0	 0.0	 0.0;
	25	 13.6	 0.0	 0.0	 0.0	 1.064	 100.0	 0	 27.2	 0.0	 0.0	 0.0	 0.0	 0.0	 0.0	 0.0	 0.0	 0.0	 0.0	 0.0	 0.0;
	40	 4.0	 0.0	 0.0	 0.0	 1.054	 100.0	 0	 8.0	 0.0	 0.0	 0.0	 0.0	 0.0	 0.0	 0.0	 0.0	 0.0	 0.0	 0.0	 0.0;
	47	 8.0	 -0.25	 9.5	 -10.0	 1.022	 100.0	 1	 16.0	 0.0	 0.0	 0.0	 0.0	 0.0	 0.0	 0.0	 0.0	 0.0	 0.0	 0.0	 0.0;
	47	 8.0	 -0.25	 9.5	 -10.0	 1.022	 100.0	 1	 16.0	 0.0	 0.0	 0.0	 0.0	 0.0	 0.0	 0.0	 0.0	 0.0	 0.0	 0.0	 0.0;
	48	 11.5	 0.0	 0.0	 0.0	 1.017	 100.0	 0	 23.0	 0.0	 0.0	 0.0	 0.0	 0.0	 0.0	 0.0	 0.0	 0.0	 0.0	 0.0	 0.0;
	48	 12.0	 0.0	 0.0	 0.0	 1.017	 100.0	 0	 24.0	 0.0	 0.0	 0.0	 0.0	 0.0	 0.0	 0.0	 0.0	 0.0	 0.0	 0.0	 0.0;
	57	 6.5	 0.95	 1.0	 0.9	 1.058	 100.0	 1	 13.0	 0.0	 0.0	 0.0	 0.0	 0.0	 0.0	 0.0	 0.0	 0.0	 0.0	 0.0	 0.0;
	64	 12.0	 0.0	 0.0	 0.0	 1.056	 100.0	 0	 24.0	 0.0	 0.0	 0.0	 0.0	 0.0	 0.0	 0.0	 0.0	 0.0	 0.0	 0.0	 0.0;
	64	 13.8	 0.0	 0.0	 0.0	 1.056	 100.0	 0	 27.6	 0.0	 0.0	 0.0	 0.0	 0.0	 0.0	 0.0	 0.0	 0.0	 0.0	 0.0	 0.0;
	69	 15.02	 0.0	 0.0	 0.0	 1.045	 100.0	 0	 30.04	 0.0	 0.0	 0.0	 0.0	 0.0	 0.0	 0.0	 0.0	 0.0	 0.0	 0.0	 0.0;
	70	 11.5	 0.0	 0.0	 0.0	 1.026	 100.0	 0	 23.0	 0.0	 0.0	 0.0	 0.0	 0.0	 0.0	 0.0	 0.0	 0.0	 0.0	 0.0	 0.0;
	85	 3.34	 0.0	 0.0	 0.0	 1.042	 100.0	 0	 6.68	 0.0	 0.0	 0.0	 0.0	 0.0	 0.0	 0.0	 0.0	 0.0	 0.0	 0.0	 0.0;
	86	 4.6	 0.0	 0.0	 0.0	 1.019	 100.0	 0	 9.2	 0.0	 0.0	 0.0	 0.0	 0.0	 0.0	 0.0	 0.0	 0.0	 0.0	 0.0	 0.0;
	102	 23.0	 6.0	 21.0	 -9.0	 1.033	 100.0	 1	 46.0	 0.0	 0.0	 0.0	 0.0	 0.0	 0.0	 0.0	 0.0	 0.0	 0.0	 0.0	 0.0;
	122	 6.0	 1.5	 5.0	 -2.0	 1.026	 100.0	 1	 12.0	 0.0	 0.0	 0.0	 0.0	 0.0	 0.0	 0.0	 0.0	 0.0	 0.0	 0.0	 0.0;
	124	 4.5	 0.0	 0.0	 0.0	 1.032	 100.0	 0	 9.0	 0.0	 0.0	 0.0	 0.0	 0.0	 0.0	 0.0	 0.0	 0.0	 0.0	 0.0	 0.0;
	125	 13.0	 0.0	 0.0	 0.0	 1.026	 100.0	 1	 26.0	 0.0	 0.0	 0.0	 0.0	 0.0	 0.0	 0.0	 0.0	 0.0	 0.0	 0.0	 0.0;
	125	 6.0	 0.0	 0.0	 0.0	 1.026	 100.0	 1	 12.0	 0.0	 0.0	 0.0	 0.0	 0.0	 0.0	 0.0	 0.0	 0.0	 0.0	 0.0	 0.0;
	132	 8.5	 0.0	 3.0	 -3.0	 1.061	 100.0	 1	 17.0	 0.0	 0.0	 0.0	 0.0	 0.0	 0.0	 0.0	 0.0	 0.0	 0.0	 0.0	 0.0;
	132	 2.0	 0.0	 1.0	 -1.0	 1.061	 100.0	 0	 4.0	 0.0	 0.0	 0.0	 0.0	 0.0	 0.0	 0.0	 0.0	 0.0	 0.0	 0.0	 0.0;
	132	 7.0	 0.0	 3.0	 -3.0	 1.061	 100.0	 0	 14.0	 0.0	 0.0	 0.0	 0.0	 0.0	 0.0	 0.0	 0.0	 0.0	 0.0	 0.0	 0.0;
	132	 7.0	 0.0	 3.0	 -3.0	 1.061	 100.0	 0	 14.0	 0.0	 0.0	 0.0	 0.0	 0.0	 0.0	 0.0	 0.0	 0.0	 0.0	 0.0	 0.0;
	137	 9.0	 0.0	 0.8	 -0.8	 1.021	 100.0	 0	 18.0	 0.0	 0.0	 0.0	 0.0	 0.0	 0.0	 0.0	 0.0	 0.0	 0.0	 0.0	 0.0;
	137	 9.0	 0.0	 0.8	 -0.8	 1.021	 100.0	 1	 18.0	 0.0	 0.0	 0.0	 0.0	 0.0	 0.0	 0.0	 0.0	 0.0	 0.0	 0.0	 0.0;
	155	 2.65	 0.0	 1.76	 -1.76	 1.035	 100.0	 0	 5.3	 0.0	 0.0	 0.0	 0.0	 0.0	 0.0	 0.0	 0.0	 0.0	 0.0	 0.0	 0.0;
	158	 8.95	 -1.5	 10.0	 -13.0	 0.959	 100.0	 1	 17.9	 0.0	 0.0	 0.0	 0.0	 0.0	 0.0	 0.0	 0.0	 0.0	 0.0	 0.0	 0.0;
	158	 8.95	 -1.5	 10.0	 -13.0	 0.959	 100.0	 1	 17.9	 0.0	 0.0	 0.0	 0.0	 0.0	 0.0	 0.0	 0.0	 0.0	 0.0	 0.0	 0.0;
	176	 15.0	 3.0	 10.0	 -4.0	 1.1	 100.0	 0	 30.0	 0.0	 0.0	 0.0	 0.0	 0.0	 0.0	 0.0	 0.0	 0.0	 0.0	 0.0	 0.0;
	187	 5.5	 0.0	 8.0	 -8.0	 1.075	 100.0	 0	 11.0	 0.0	 0.0	 0.0	 0.0	 0.0	 0.0	 0.0	 0.0	 0.0	 0.0	 0.0	 0.0;
	187	 5.5	 0.0	 2.0	 -2.0	 1.075	 100.0	 0	 11.0	 0.0	 0.0	 0.0	 0.0	 0.0	 0.0	 0.0	 0.0	 0.0	 0.0	 0.0	 0.0;
	190	 15.0	 0.0	 14.0	 -14.0	 0.951	 100.0	 0	 30.0	 0.0	 0.0	 0.0	 0.0	 0.0	 0.0	 0.0	 0.0	 0.0	 0.0	 0.0	 0.0;
	192	 11.75	 0.0	 0.0	 0.0	 1.058	 100.0	 1	 23.5	 0.0	 0.0	 0.0	 0.0	 0.0	 0.0	 0.0	 0.0	 0.0	 0.0	 0.0	 0.0;
	194	 7.5	 0.95	 1.0	 0.9	 1.056	 100.0	 1	 15.0	 0.0	 0.0	 0.0	 0.0	 0.0	 0.0	 0.0	 0.0	 0.0	 0.0	 0.0	 0.0;
	194	 7.5	 0.95	 1.0	 0.9	 1.056	 100.0	 1	 15.0	 0.0	 0.0	 0.0	 0.0	 0.0	 0.0	 0.0	 0.0	 0.0	 0.0	 0.0	 0.0;
	217	 5.97	 0.0	 0.0	 0.0	 1.009	 100.0	 0	 11.94	 0.0	 0.0	 0.0	 0.0	 0.0	 0.0	 0.0	 0.0	 0.0	 0.0	 0.0	 0.0;
	224	 3.0	 1.0	 2.0	 0.0	 1.099	 100.0	 0	 6.0	 0.0	 0.0	 0.0	 0.0	 0.0	 0.0	 0.0	 0.0	 0.0	 0.0	 0.0	 0.0;
	227	 3.75	 0.0	 0.0	 0.0	 1.012	 100.0	 0	 7.5	 0.0	 0.0	 0.0	 0.0	 0.0	 0.0	 0.0	 0.0	 0.0	 0.0	 0.0	 0.0;
	236	 16.75	 0.0	 0.0	 0.0	 1.033	 100.0	 0	 33.5	 0.0	 0.0	 0.0	 0.0	 0.0	 0.0	 0.0	 0.0	 0.0	 0.0	 0.0	 0.0;
	236	 12.15	 0.0	 0.0	 0.0	 1.033	 100.0	 0	 24.3	 0.0	 0.0	 0.0	 0.0	 0.0	 0.0	 0.0	 0.0	 0.0	 0.0	 0.0	 0.0;
	238	 4.0	 0.0	 0.0	 0.0	 1.033	 100.0	 0	 8.0	 0.0	 0.0	 0.0	 0.0	 0.0	 0.0	 0.0	 0.0	 0.0	 0.0	 0.0	 0.0;
	238	 18.0	 0.0	 0.0	 0.0	 1.033	 100.0	 1	 36.0	 0.0	 0.0	 0.0	 0.0	 0.0	 0.0	 0.0	 0.0	 0.0	 0.0	 0.0	 0.0;
	246	 0.5	 1.0	 2.0	 0.0	 1.02	 100.0	 0	 1.0	 0.0	 0.0	 0.0	 0.0	 0.0	 0.0	 0.0	 0.0	 0.0	 0.0	 0.0	 0.0;
	246	 15.5	 0.0	 10.0	 -10.0	 1.02	 100.0	 0	 31.0	 0.0	 0.0	 0.0	 0.0	 0.0	 0.0	 0.0	 0.0	 0.0	 0.0	 0.0	 0.0;
	246	 15.5	 0.0	 10.0	 -10.0	 1.02	 100.0	 0	 31.0	 0.0	 0.0	 0.0	 0.0	 0.0	 0.0	 0.0	 0.0	 0.0	 0.0	 0.0	 0.0;
	246	 15.5	 0.0	 10.0	 -10.0	 1.02	 100.0	 0	 31.0	 0.0	 0.0	 0.0	 0.0	 0.0	 0.0	 0.0	 0.0	 0.0	 0.0	 0.0	 0.0;
	256	 13.0	 0.0	 10.0	 -10.0	 1.047	 100.0	 1	 26.0	 0.0	 0.0	 0.0	 0.0	 0.0	 0.0	 0.0	 0.0	 0.0	 0.0	 0.0	 0.0;
	256	 13.0	 0.0	 10.0	 -10.0	 1.047	 100.0	 1	 26.0	 0.0	 0.0	 0.0	 0.0	 0.0	 0.0	 0.0	 0.0	 0.0	 0.0	 0.0	 0.0;
	258	 15.0	 0.95	 1.0	 0.9	 1.078	 100.0	 1	 30.0	 0.0	 0.0	 0.0	 0.0	 0.0	 0.0	 0.0	 0.0	 0.0	 0.0	 0.0	 0.0;
	261	 4.0	 0.0	 4.0	 -4.0	 1.049	 100.0	 0	 8.0	 0.0	 0.0	 0.0	 0.0	 0.0	 0.0	 0.0	 0.0	 0.0	 0.0	 0.0	 0.0;
	269	 6.3	 0.0	 0.0	 0.0	 1.006	 100.0	 0	 12.6	 0.0	 0.0	 0.0	 0.0	 0.0	 0.0	 0.0	 0.0	 0.0	 0.0	 0.0	 0.0;
	282	 5.8	 -0.05	 6.1	 -6.2	 1.02	 100.0	 0	 11.6	 0.0	 0.0	 0.0	 0.0	 0.0	 0.0	 0.0	 0.0	 0.0	 0.0	 0.0	 0.0;
	295	 12.65	 0.0	 0.0	 0.0	 1.044	 100.0	 0	 25.3	 0.0	 0.0	 0.0	 0.0	 0.0	 0.0	 0.0	 0.0	 0.0	 0.0	 0.0	 0.0;
	296	 6.0	 0.0	 0.0	 0.0	 1.008	 100.0	 1	 12.0	 0.0	 0.0	 0.0	 0.0	 0.0	 0.0	 0.0	 0.0	 0.0	 0.0	 0.0	 0.0;
	305	 7.5	 0.0	 9.0	 -9.0	 1.042	 100.0	 0	 15.0	 0.0	 0.0	 0.0	 0.0	 0.0	 0.0	 0.0	 0.0	 0.0	 0.0	 0.0	 0.0;
	312	 12.9	 0.0	 0.0	 0.0	 1.011	 100.0	 1	 25.8	 0.0	 0.0	 0.0	 0.0	 0.0	 0.0	 0.0	 0.0	 0.0	 0.0	 0.0	 0.0;
	312	 24.8	 0.0	 0.0	 0.0	 1.011	 100.0	 1	 49.6	 0.0	 0.0	 0.0	 0.0	 0.0	 0.0	 0.0	 0.0	 0.0	 0.0	 0.0	 0.0;
	317	 -3.5	 0.0	 0.0	 0.0	 1.058	 100.0	 0	 0.0	 -7.0	 0.0	 0.0	 0.0	 0.0	 0.0	 0.0	 0.0	 0.0	 0.0	 0.0	 0.0;
	317	 -3.5	 0.0	 0.0	 0.0	 1.058	 100.0	 0	 0.0	 -7.0	 0.0	 0.0	 0.0	 0.0	 0.0	 0.0	 0.0	 0.0	 0.0	 0.0	 0.0;
	319	 5.4	 0.0	 0.1	 -0.1	 1.038	 100.0	 0	 10.8	 0.0	 0.0	 0.0	 0.0	 0.0	 0.0	 0.0	 0.0	 0.0	 0.0	 0.0	 0.0;
	325	 5.5	 0.0	 4.0	 -4.0	 1.03	 100.0	 0	 11.0	 0.0	 0.0	 0.0	 0.0	 0.0	 0.0	 0.0	 0.0	 0.0	 0.0	 0.0	 0.0;
	332	 12.5	 2.0	 13.0	 -9.0	 1.038	 100.0	 0	 25.0	 0.0	 0.0	 0.0	 0.0	 0.0	 0.0	 0.0	 0.0	 0.0	 0.0	 0.0	 0.0;
	333	 12.5	 2.0	 13.0	 -9.0	 1.048	 100.0	 0	 25.0	 0.0	 0.0	 0.0	 0.0	 0.0	 0.0	 0.0	 0.0	 0.0	 0.0	 0.0	 0.0;
	336	 6.5	 -0.5	 5.0	 -6.0	 1.023	 100.0	 1	 13.0	 0.0	 0.0	 0.0	 0.0	 0.0	 0.0	 0.0	 0.0	 0.0	 0.0	 0.0	 0.0;
	338	 10.5	 0.0	 10.0	 -10.0	 1.076	 100.0	 0	 21.0	 0.0	 0.0	 0.0	 0.0	 0.0	 0.0	 0.0	 0.0	 0.0	 0.0	 0.0	 0.0;
	338	 1.0	 0.0	 0.1	 -0.1	 1.076	 100.0	 0	 2.0	 0.0	 0.0	 0.0	 0.0	 0.0	 0.0	 0.0	 0.0	 0.0	 0.0	 0.0	 0.0;
	345	 1.15	 0.0	 0.0	 0.0	 1.027	 100.0	 0	 2.3	 0.0	 0.0	 0.0	 0.0	 0.0	 0.0	 0.0	 0.0	 0.0	 0.0	 0.0	 0.0;
	345	 9.75	 0.0	 0.0	 0.0	 1.027	 100.0	 0	 19.5	 0.0	 0.0	 0.0	 0.0	 0.0	 0.0	 0.0	 0.0	 0.0	 0.0	 0.0	 0.0;
	348	 11.0	 0.0	 0.0	 0.0	 1.047	 100.0	 0	 22.0	 0.0	 0.0	 0.0	 0.0	 0.0	 0.0	 0.0	 0.0	 0.0	 0.0	 0.0	 0.0;
	357	 6.0	 0.0	 0.0	 0.0	 0.996	 100.0	 0	 12.0	 0.0	 0.0	 0.0	 0.0	 0.0	 0.0	 0.0	 0.0	 0.0	 0.0	 0.0	 0.0;
	357	 6.0	 0.0	 0.0	 0.0	 0.996	 100.0	 0	 12.0	 0.0	 0.0	 0.0	 0.0	 0.0	 0.0	 0.0	 0.0	 0.0	 0.0	 0.0	 0.0;
	364	 65.0	 16.5	 59.0	 -26.0	 1.035	 100.0	 1	 130.0	 0.0	 0.0	 0.0	 0.0	 0.0	 0.0	 0.0	 0.0	 0.0	 0.0	 0.0	 0.0;
	391	 1.35	 0.0	 0.0	 0.0	 1.03	 100.0	 0	 2.7	 0.0	 0.0	 0.0	 0.0	 0.0	 0.0	 0.0	 0.0	 0.0	 0.0	 0.0	 0.0;
	409	 9.0	 0.0	 5.0	 -5.0	 1.034	 100.0	 0	 18.0	 0.0	 0.0	 0.0	 0.0	 0.0	 0.0	 0.0	 0.0	 0.0	 0.0	 0.0	 0.0;
	411	 5.0	 0.0	 0.0	 0.0	 1.027	 100.0	 0	 10.0	 0.0	 0.0	 0.0	 0.0	 0.0	 0.0	 0.0	 0.0	 0.0	 0.0	 0.0	 0.0;
	411	 5.75	 0.0	 0.0	 0.0	 1.027	 100.0	 0	 11.5	 0.0	 0.0	 0.0	 0.0	 0.0	 0.0	 0.0	 0.0	 0.0	 0.0	 0.0	 0.0;
	431	 6.0	 0.0	 0.0	 0.0	 1.049	 100.0	 0	 12.0	 0.0	 0.0	 0.0	 0.0	 0.0	 0.0	 0.0	 0.0	 0.0	 0.0	 0.0	 0.0;
	440	 17.125	 -0.515	 10.96	 -11.99	 1.023	 100.0	 0	 34.25	 0.0	 0.0	 0.0	 0.0	 0.0	 0.0	 0.0	 0.0	 0.0	 0.0	 0.0	 0.0;
	447	 12.5	 -0.5	 8.0	 -9.0	 0.997	 100.0	 1	 25.0	 0.0	 0.0	 0.0	 0.0	 0.0	 0.0	 0.0	 0.0	 0.0	 0.0	 0.0	 0.0;
	462	 1.2	 0.0	 0.0	 0.0	 1.046	 100.0	 0	 2.4	 0.0	 0.0	 0.0	 0.0	 0.0	 0.0	 0.0	 0.0	 0.0	 0.0	 0.0	 0.0;
	462	 8.0	 0.0	 0.0	 0.0	 1.046	 100.0	 0	 16.0	 0.0	 0.0	 0.0	 0.0	 0.0	 0.0	 0.0	 0.0	 0.0	 0.0	 0.0	 0.0;
	464	 14.0	 1.5	 6.0	 -3.0	 1.176	 100.0	 1	 27.0	 1.0	 0.0	 0.0	 0.0	 0.0	 0.0	 0.0	 0.0	 0.0	 0.0	 0.0	 0.0;
	464	 14.0	 1.5	 6.0	 -3.0	 1.176	 100.0	 1	 27.0	 1.0	 0.0	 0.0	 0.0	 0.0	 0.0	 0.0	 0.0	 0.0	 0.0	 0.0	 0.0;
	466	 24.5	 4.5	 19.0	 -10.0	 1.035	 100.0	 0	 48.0	 1.0	 0.0	 0.0	 0.0	 0.0	 0.0	 0.0	 0.0	 0.0	 0.0	 0.0	 0.0;
	470	 5.0	 0.0	 6.0	 -6.0	 1.045	 100.0	 0	 10.0	 0.0	 0.0	 0.0	 0.0	 0.0	 0.0	 0.0	 0.0	 0.0	 0.0	 0.0	 0.0;
	470	 4.5	 0.0	 5.4	 -5.4	 1.045	 100.0	 0	 9.0	 0.0	 0.0	 0.0	 0.0	 0.0	 0.0	 0.0	 0.0	 0.0	 0.0	 0.0	 0.0;
	479	 13.5	 0.5	 17.0	 -16.0	 1.022	 100.0	 0	 27.0	 0.0	 0.0	 0.0	 0.0	 0.0	 0.0	 0.0	 0.0	 0.0	 0.0	 0.0	 0.0;
	479	 13.5	 0.5	 17.0	 -16.0	 1.022	 100.0	 0	 27.0	 0.0	 0.0	 0.0	 0.0	 0.0	 0.0	 0.0	 0.0	 0.0	 0.0	 0.0	 0.0;
	479	 13.5	 0.5	 17.0	 -16.0	 1.022	 100.0	 0	 27.0	 0.0	 0.0	 0.0	 0.0	 0.0	 0.0	 0.0	 0.0	 0.0	 0.0	 0.0	 0.0;
	491	 11.7	 -4.5	 8.0	 -17.0	 1.054	 100.0	 0	 23.4	 0.0	 0.0	 0.0	 0.0	 0.0	 0.0	 0.0	 0.0	 0.0	 0.0	 0.0	 0.0;
	508	 2.0	 0.0	 2.0	 -2.0	 1.027	 100.0	 0	 4.0	 0.0	 0.0	 0.0	 0.0	 0.0	 0.0	 0.0	 0.0	 0.0	 0.0	 0.0	 0.0;
	519	 5.0	 0.0	 0.0	 0.0	 0.999	 100.0	 0	 10.0	 0.0	 0.0	 0.0	 0.0	 0.0	 0.0	 0.0	 0.0	 0.0	 0.0	 0.0	 0.0;
	520	 6.0	 0.0	 0.0	 0.0	 1.025	 100.0	 0	 12.0	 0.0	 0.0	 0.0	 0.0	 0.0	 0.0	 0.0	 0.0	 0.0	 0.0	 0.0	 0.0;
	530	 4.0	 0.0	 4.8	 -4.8	 1.039	 100.0	 1	 8.0	 0.0	 0.0	 0.0	 0.0	 0.0	 0.0	 0.0	 0.0	 0.0	 0.0	 0.0	 0.0;
	530	 4.0	 0.0	 4.8	 -4.8	 1.039	 100.0	 1	 8.0	 0.0	 0.0	 0.0	 0.0	 0.0	 0.0	 0.0	 0.0	 0.0	 0.0	 0.0	 0.0;
	530	 4.0	 0.0	 4.8	 -4.8	 1.039	 100.0	 1	 8.0	 0.0	 0.0	 0.0	 0.0	 0.0	 0.0	 0.0	 0.0	 0.0	 0.0	 0.0	 0.0;
	537	 6.0	 0.0	 0.0	 0.0	 1.028	 100.0	 0	 12.0	 0.0	 0.0	 0.0	 0.0	 0.0	 0.0	 0.0	 0.0	 0.0	 0.0	 0.0	 0.0;
	537	 12.0	 0.0	 0.0	 0.0	 1.028	 100.0	 1	 24.0	 0.0	 0.0	 0.0	 0.0	 0.0	 0.0	 0.0	 0.0	 0.0	 0.0	 0.0	 0.0;
	546	 4.5	 1.95	 2.0	 1.9	 1.025	 100.0	 1	 9.0	 0.0	 0.0	 0.0	 0.0	 0.0	 0.0	 0.0	 0.0	 0.0	 0.0	 0.0	 0.0;
	548	 6.0	 1.0	 2.0	 0.0	 1.04	 100.0	 0	 12.0	 0.0	 0.0	 0.0	 0.0	 0.0	 0.0	 0.0	 0.0	 0.0	 0.0	 0.0	 0.0;
	570	 6.0	 0.0	 0.0	 0.0	 0.997	 100.0	 0	 12.0	 0.0	 0.0	 0.0	 0.0	 0.0	 0.0	 0.0	 0.0	 0.0	 0.0	 0.0	 0.0;
	570	 15.0	 0.0	 0.0	 0.0	 0.997	 100.0	 0	 30.0	 0.0	 0.0	 0.0	 0.0	 0.0	 0.0	 0.0	 0.0	 0.0	 0.0	 0.0	 0.0;
	570	 5.75	 0.0	 0.0	 0.0	 0.997	 100.0	 0	 11.5	 0.0	 0.0	 0.0	 0.0	 0.0	 0.0	 0.0	 0.0	 0.0	 0.0	 0.0	 0.0;
	583	 8.0	 1.5	 7.0	 -4.0	 1.009	 100.0	 1	 16.0	 0.0	 0.0	 0.0	 0.0	 0.0	 0.0	 0.0	 0.0	 0.0	 0.0	 0.0	 0.0;
	585	 4.5	 0.0	 0.0	 0.0	 0.986	 100.0	 0	 9.0	 0.0	 0.0	 0.0	 0.0	 0.0	 0.0	 0.0	 0.0	 0.0	 0.0	 0.0	 0.0;
	586	 4.75	 0.0	 5.7	 -5.7	 1.025	 100.0	 0	 9.5	 0.0	 0.0	 0.0	 0.0	 0.0	 0.0	 0.0	 0.0	 0.0	 0.0	 0.0	 0.0;
	589	 0.5	 0.0	 0.1	 -0.1	 1.018	 100.0	 0	 1.0	 0.0	 0.0	 0.0	 0.0	 0.0	 0.0	 0.0	 0.0	 0.0	 0.0	 0.0	 0.0;
	593	 10.5	 0.0	 10.0	 -10.0	 1.03	 100.0	 0	 21.0	 0.0	 0.0	 0.0	 0.0	 0.0	 0.0	 0.0	 0.0	 0.0	 0.0	 0.0	 0.0;
	600	 3.05	 0.0	 1.0	 -1.0	 1.03	 100.0	 0	 6.1	 0.0	 0.0	 0.0	 0.0	 0.0	 0.0	 0.0	 0.0	 0.0	 0.0	 0.0	 0.0;
	610	 22.5	 0.0	 45.0	 -45.0	 1.021	 100.0	 1	 45.0	 0.0	 0.0	 0.0	 0.0	 0.0	 0.0	 0.0	 0.0	 0.0	 0.0	 0.0	 0.0;
	610	 22.5	 0.0	 45.0	 -45.0	 1.021	 100.0	 0	 45.0	 0.0	 0.0	 0.0	 0.0	 0.0	 0.0	 0.0	 0.0	 0.0	 0.0	 0.0	 0.0;
	612	 6.0	 0.0	 0.0	 0.0	 1.0	 100.0	 0	 12.0	 0.0	 0.0	 0.0	 0.0	 0.0	 0.0	 0.0	 0.0	 0.0	 0.0	 0.0	 0.0;
	612	 6.0	 0.0	 0.0	 0.0	 1.0	 100.0	 0	 12.0	 0.0	 0.0	 0.0	 0.0	 0.0	 0.0	 0.0	 0.0	 0.0	 0.0	 0.0	 0.0;
	612	 6.0	 0.0	 0.0	 0.0	 1.0	 100.0	 0	 12.0	 0.0	 0.0	 0.0	 0.0	 0.0	 0.0	 0.0	 0.0	 0.0	 0.0	 0.0	 0.0;
	613	 17.5	 0.0	 0.0	 0.0	 0.994	 100.0	 0	 35.0	 0.0	 0.0	 0.0	 0.0	 0.0	 0.0	 0.0	 0.0	 0.0	 0.0	 0.0	 0.0;
	613	 5.75	 0.0	 0.0	 0.0	 0.994	 100.0	 0	 11.5	 0.0	 0.0	 0.0	 0.0	 0.0	 0.0	 0.0	 0.0	 0.0	 0.0	 0.0	 0.0;
	624	 0.0	 0.0	 8.3	 -8.3	 1.047	 100.0	 1	 8.3	 -8.3	 0.0	 0.0	 0.0	 0.0	 0.0	 0.0	 0.0	 0.0	 0.0	 0.0	 0.0;
	633	 3.65	 0.0	 4.0	 -4.0	 1.028	 100.0	 0	 7.3	 0.0	 0.0	 0.0	 0.0	 0.0	 0.0	 0.0	 0.0	 0.0	 0.0	 0.0	 0.0;
	636	 7.5	 3.5	 7.0	 0.0	 0.999	 100.0	 0	 15.0	 0.0	 0.0	 0.0	 0.0	 0.0	 0.0	 0.0	 0.0	 0.0	 0.0	 0.0	 0.0;
	636	 7.5	 3.5	 7.0	 0.0	 0.999	 100.0	 1	 15.0	 0.0	 0.0	 0.0	 0.0	 0.0	 0.0	 0.0	 0.0	 0.0	 0.0	 0.0	 0.0;
	646	 119.5	 2.5	 80.0	 -75.0	 1.104	 100.0	 1	 239.0	 0.0	 0.0	 0.0	 0.0	 0.0	 0.0	 0.0	 0.0	 0.0	 0.0	 0.0	 0.0;
	657	 3.5	 3.5	 7.0	 0.0	 1.065	 100.0	 0	 7.0	 0.0	 0.0	 0.0	 0.0	 0.0	 0.0	 0.0	 0.0	 0.0	 0.0	 0.0	 0.0;
	675	 6.0	 0.0	 0.0	 0.0	 1.026	 100.0	 0	 12.0	 0.0	 0.0	 0.0	 0.0	 0.0	 0.0	 0.0	 0.0	 0.0	 0.0	 0.0	 0.0;
	675	 6.0	 0.0	 0.0	 0.0	 1.026	 100.0	 1	 12.0	 0.0	 0.0	 0.0	 0.0	 0.0	 0.0	 0.0	 0.0	 0.0	 0.0	 0.0	 0.0;
	676	 3.75	 0.0	 0.0	 0.0	 1.025	 100.0	 0	 7.5	 0.0	 0.0	 0.0	 0.0	 0.0	 0.0	 0.0	 0.0	 0.0	 0.0	 0.0	 0.0;
	676	 12.0	 0.0	 0.0	 0.0	 1.025	 100.0	 0	 24.0	 0.0	 0.0	 0.0	 0.0	 0.0	 0.0	 0.0	 0.0	 0.0	 0.0	 0.0	 0.0;
	684	 3.3	 0.0	 0.0	 0.0	 0.996	 100.0	 0	 6.6	 0.0	 0.0	 0.0	 0.0	 0.0	 0.0	 0.0	 0.0	 0.0	 0.0	 0.0	 0.0;
	685	 6.0	 0.0	 0.0	 0.0	 1.05	 100.0	 0	 12.0	 0.0	 0.0	 0.0	 0.0	 0.0	 0.0	 0.0	 0.0	 0.0	 0.0	 0.0	 0.0;
	689	 4.5	 0.5	 6.0	 -5.0	 0.966	 100.0	 1	 9.0	 0.0	 0.0	 0.0	 0.0	 0.0	 0.0	 0.0	 0.0	 0.0	 0.0	 0.0	 0.0;
	689	 4.5	 0.5	 6.0	 -5.0	 0.966	 100.0	 1	 9.0	 0.0	 0.0	 0.0	 0.0	 0.0	 0.0	 0.0	 0.0	 0.0	 0.0	 0.0	 0.0;
	689	 5.5	 1.5	 8.0	 -5.0	 0.966	 100.0	 0	 11.0	 0.0	 0.0	 0.0	 0.0	 0.0	 0.0	 0.0	 0.0	 0.0	 0.0	 0.0	 0.0;
	689	 5.5	 1.5	 8.0	 -5.0	 0.966	 100.0	 1	 11.0	 0.0	 0.0	 0.0	 0.0	 0.0	 0.0	 0.0	 0.0	 0.0	 0.0	 0.0	 0.0;
	700	 16.175	 0.0	 0.0	 0.0	 1.033	 100.0	 0	 32.35	 0.0	 0.0	 0.0	 0.0	 0.0	 0.0	 0.0	 0.0	 0.0	 0.0	 0.0	 0.0;
	700	 6.0	 0.0	 0.0	 0.0	 1.033	 100.0	 0	 12.0	 0.0	 0.0	 0.0	 0.0	 0.0	 0.0	 0.0	 0.0	 0.0	 0.0	 0.0	 0.0;
	700	 10.5	 0.0	 0.0	 0.0	 1.033	 100.0	 0	 21.0	 0.0	 0.0	 0.0	 0.0	 0.0	 0.0	 0.0	 0.0	 0.0	 0.0	 0.0	 0.0;
	704	 18.5	 -1.0	 15.0	 -17.0	 1.015	 100.0	 1	 37.0	 0.0	 0.0	 0.0	 0.0	 0.0	 0.0	 0.0	 0.0	 0.0	 0.0	 0.0	 0.0;
	704	 18.5	 -1.0	 15.0	 -17.0	 1.015	 100.0	 1	 37.0	 0.0	 0.0	 0.0	 0.0	 0.0	 0.0	 0.0	 0.0	 0.0	 0.0	 0.0	 0.0;
	703	 18.5	 0.0	 15.0	 -15.0	 1.014	 100.0	 1	 37.0	 0.0	 0.0	 0.0	 0.0	 0.0	 0.0	 0.0	 0.0	 0.0	 0.0	 0.0	 0.0;
	703	 18.5	 0.0	 15.0	 -15.0	 1.014	 100.0	 1	 37.0	 0.0	 0.0	 0.0	 0.0	 0.0	 0.0	 0.0	 0.0	 0.0	 0.0	 0.0	 0.0;
	702	 18.5	 -1.0	 15.0	 -17.0	 1.014	 100.0	 1	 37.0	 0.0	 0.0	 0.0	 0.0	 0.0	 0.0	 0.0	 0.0	 0.0	 0.0	 0.0	 0.0;
	702	 18.5	 -1.0	 15.0	 -17.0	 1.014	 100.0	 1	 37.0	 0.0	 0.0	 0.0	 0.0	 0.0	 0.0	 0.0	 0.0	 0.0	 0.0	 0.0	 0.0;
	710	 2.0	 0.0	 2.0	 -2.0	 0.963	 100.0	 0	 4.0	 0.0	 0.0	 0.0	 0.0	 0.0	 0.0	 0.0	 0.0	 0.0	 0.0	 0.0	 0.0;
	710	 2.0	 0.0	 2.5	 -2.5	 0.963	 100.0	 0	 4.0	 0.0	 0.0	 0.0	 0.0	 0.0	 0.0	 0.0	 0.0	 0.0	 0.0	 0.0	 0.0;
	710	 2.85	 0.0	 3.0	 -3.0	 0.963	 100.0	 1	 5.7	 0.0	 0.0	 0.0	 0.0	 0.0	 0.0	 0.0	 0.0	 0.0	 0.0	 0.0	 0.0;
	710	 4.25	 0.5	 6.0	 -5.0	 0.963	 100.0	 0	 8.5	 0.0	 0.0	 0.0	 0.0	 0.0	 0.0	 0.0	 0.0	 0.0	 0.0	 0.0	 0.0;
	737	 9.75	 0.0	 0.0	 0.0	 1.021	 100.0	 0	 19.5	 0.0	 0.0	 0.0	 0.0	 0.0	 0.0	 0.0	 0.0	 0.0	 0.0	 0.0	 0.0;
	738	 19.5	 0.0	 18.0	 -18.0	 0.995	 100.0	 1	 39.0	 0.0	 0.0	 0.0	 0.0	 0.0	 0.0	 0.0	 0.0	 0.0	 0.0	 0.0	 0.0;
	739	 5.75	 0.0	 0.0	 0.0	 0.995	 100.0	 1	 11.5	 0.0	 0.0	 0.0	 0.0	 0.0	 0.0	 0.0	 0.0	 0.0	 0.0	 0.0	 0.0;
	739	 16.0	 0.0	 0.0	 0.0	 0.995	 100.0	 1	 32.0	 0.0	 0.0	 0.0	 0.0	 0.0	 0.0	 0.0	 0.0	 0.0	 0.0	 0.0	 0.0;
	741	 6.0	 0.0	 0.0	 0.0	 1.029	 100.0	 0	 12.0	 0.0	 0.0	 0.0	 0.0	 0.0	 0.0	 0.0	 0.0	 0.0	 0.0	 0.0	 0.0;
	741	 16.0	 0.0	 0.0	 0.0	 1.029	 100.0	 0	 32.0	 0.0	 0.0	 0.0	 0.0	 0.0	 0.0	 0.0	 0.0	 0.0	 0.0	 0.0	 0.0;
	742	 2.5	 0.0	 0.1	 -0.1	 1.034	 100.0	 0	 5.0	 0.0	 0.0	 0.0	 0.0	 0.0	 0.0	 0.0	 0.0	 0.0	 0.0	 0.0	 0.0;
	749	 3.35	 0.135	 3.97	 -3.7	 1.008	 100.0	 0	 6.7	 0.0	 0.0	 0.0	 0.0	 0.0	 0.0	 0.0	 0.0	 0.0	 0.0	 0.0	 0.0;
	749	 2.8	 0.27	 3.54	 -3.0	 1.008	 100.0	 0	 5.6	 0.0	 0.0	 0.0	 0.0	 0.0	 0.0	 0.0	 0.0	 0.0	 0.0	 0.0	 0.0;
	750	 13.3	 0.0	 15.0	 -15.0	 1.002	 100.0	 1	 26.6	 0.0	 0.0	 0.0	 0.0	 0.0	 0.0	 0.0	 0.0	 0.0	 0.0	 0.0	 0.0;
	751	 4.0	 0.0	 2.0	 -2.0	 1.014	 100.0	 1	 7.0	 1.0	 0.0	 0.0	 0.0	 0.0	 0.0	 0.0	 0.0	 0.0	 0.0	 0.0	 0.0;
	756	 0.0	 0.0	 3.0	 -3.0	 1.02	 100.0	 0	 5.0	 -5.0	 0.0	 0.0	 0.0	 0.0	 0.0	 0.0	 0.0	 0.0	 0.0	 0.0	 0.0;
	763	 11.75	 0.0	 8.0	 -8.0	 1.05	 100.0	 0	 23.5	 0.0	 0.0	 0.0	 0.0	 0.0	 0.0	 0.0	 0.0	 0.0	 0.0	 0.0	 0.0;
	765	 3.0	 0.0	 0.0	 0.0	 1.037	 100.0	 0	 6.0	 0.0	 0.0	 0.0	 0.0	 0.0	 0.0	 0.0	 0.0	 0.0	 0.0	 0.0	 0.0;
	766	 3.0	 0.0	 0.0	 0.0	 1.036	 100.0	 0	 6.0	 0.0	 0.0	 0.0	 0.0	 0.0	 0.0	 0.0	 0.0	 0.0	 0.0	 0.0	 0.0;
	765	 18.75	 1.79	 10.0	 -6.42	 1.037	 100.0	 1	 37.5	 0.0	 0.0	 0.0	 0.0	 0.0	 0.0	 0.0	 0.0	 0.0	 0.0	 0.0	 0.0;
	766	 18.75	 2.0	 10.0	 -6.0	 1.036	 100.0	 1	 37.5	 0.0	 0.0	 0.0	 0.0	 0.0	 0.0	 0.0	 0.0	 0.0	 0.0	 0.0	 0.0;
	767	 0.3	 0.0	 0.06	 -0.06	 0.586	 100.0	 0	 0.6	 0.0	 0.0	 0.0	 0.0	 0.0	 0.0	 0.0	 0.0	 0.0	 0.0	 0.0	 0.0;
	767	 13.05	 0.0	 2.61	 -2.61	 0.586	 100.0	 0	 26.1	 0.0	 0.0	 0.0	 0.0	 0.0	 0.0	 0.0	 0.0	 0.0	 0.0	 0.0	 0.0;
	767	 0.8	 0.0	 0.16	 -0.16	 0.586	 100.0	 0	 1.6	 0.0	 0.0	 0.0	 0.0	 0.0	 0.0	 0.0	 0.0	 0.0	 0.0	 0.0	 0.0;
	767	 0.55	 0.0	 0.11	 -0.11	 0.586	 100.0	 0	 1.1	 0.0	 0.0	 0.0	 0.0	 0.0	 0.0	 0.0	 0.0	 0.0	 0.0	 0.0	 0.0;
	771	 18.75	 0.0	 0.0	 0.0	 1.011	 100.0	 0	 37.5	 0.0	 0.0	 0.0	 0.0	 0.0	 0.0	 0.0	 0.0	 0.0	 0.0	 0.0	 0.0;
	771	 17.0	 0.0	 0.0	 0.0	 1.011	 100.0	 1	 34.0	 0.0	 0.0	 0.0	 0.0	 0.0	 0.0	 0.0	 0.0	 0.0	 0.0	 0.0	 0.0;
	791	 4.0	 0.0	 26.0	 -26.0	 1.008	 100.0	 0	 8.0	 0.0	 0.0	 0.0	 0.0	 0.0	 0.0	 0.0	 0.0	 0.0	 0.0	 0.0	 0.0;
	791	 7.5	 0.0	 26.0	 -26.0	 1.008	 100.0	 0	 15.0	 0.0	 0.0	 0.0	 0.0	 0.0	 0.0	 0.0	 0.0	 0.0	 0.0	 0.0	 0.0;
	792	 9.5	 0.0	 26.0	 -26.0	 1.016	 100.0	 0	 19.0	 0.0	 0.0	 0.0	 0.0	 0.0	 0.0	 0.0	 0.0	 0.0	 0.0	 0.0	 0.0;
	806	 15.5	 -1.0	 15.0	 -17.0	 1.014	 100.0	 1	 31.0	 0.0	 0.0	 0.0	 0.0	 0.0	 0.0	 0.0	 0.0	 0.0	 0.0	 0.0	 0.0;
	806	 15.5	 -1.0	 15.0	 -17.0	 1.014	 100.0	 1	 31.0	 0.0	 0.0	 0.0	 0.0	 0.0	 0.0	 0.0	 0.0	 0.0	 0.0	 0.0	 0.0;
	807	 15.5	 -1.0	 15.0	 -17.0	 1.018	 100.0	 1	 31.0	 0.0	 0.0	 0.0	 0.0	 0.0	 0.0	 0.0	 0.0	 0.0	 0.0	 0.0	 0.0;
	807	 15.5	 -1.0	 15.0	 -17.0	 1.018	 100.0	 1	 31.0	 0.0	 0.0	 0.0	 0.0	 0.0	 0.0	 0.0	 0.0	 0.0	 0.0	 0.0	 0.0;
	808	 15.5	 -1.0	 15.0	 -17.0	 1.016	 100.0	 1	 31.0	 0.0	 0.0	 0.0	 0.0	 0.0	 0.0	 0.0	 0.0	 0.0	 0.0	 0.0	 0.0;
	808	 15.5	 -1.0	 15.0	 -17.0	 1.016	 100.0	 1	 31.0	 0.0	 0.0	 0.0	 0.0	 0.0	 0.0	 0.0	 0.0	 0.0	 0.0	 0.0	 0.0;
	812	 20.4	 0.0	 0.0	 0.0	 1.017	 100.0	 1	 40.8	 0.0	 0.0	 0.0	 0.0	 0.0	 0.0	 0.0	 0.0	 0.0	 0.0	 0.0	 0.0;
	820	 16.5	 -1.5	 6.0	 -9.0	 1.022	 100.0	 1	 32.0	 1.0	 0.0	 0.0	 0.0	 0.0	 0.0	 0.0	 0.0	 0.0	 0.0	 0.0	 0.0;
	820	 16.5	 -1.5	 6.0	 -9.0	 1.022	 100.0	 0	 32.0	 1.0	 0.0	 0.0	 0.0	 0.0	 0.0	 0.0	 0.0	 0.0	 0.0	 0.0	 0.0;
	821	 16.5	 -1.5	 6.0	 -9.0	 1.022	 100.0	 1	 32.0	 1.0	 0.0	 0.0	 0.0	 0.0	 0.0	 0.0	 0.0	 0.0	 0.0	 0.0	 0.0;
	821	 16.5	 -1.5	 6.0	 -9.0	 1.022	 100.0	 1	 32.0	 1.0	 0.0	 0.0	 0.0	 0.0	 0.0	 0.0	 0.0	 0.0	 0.0	 0.0	 0.0;
	821	 16.5	 -1.5	 6.0	 -9.0	 1.022	 100.0	 1	 32.0	 1.0	 0.0	 0.0	 0.0	 0.0	 0.0	 0.0	 0.0	 0.0	 0.0	 0.0	 0.0;
	821	 16.5	 -1.5	 6.0	 -9.0	 1.022	 100.0	 1	 32.0	 1.0	 0.0	 0.0	 0.0	 0.0	 0.0	 0.0	 0.0	 0.0	 0.0	 0.0	 0.0;
	831	 6.5	 0.0	 3.0	 -3.0	 1.044	 100.0	 0	 13.0	 0.0	 0.0	 0.0	 0.0	 0.0	 0.0	 0.0	 0.0	 0.0	 0.0	 0.0	 0.0;
	831	 3.5	 0.0	 3.0	 -3.0	 1.044	 100.0	 0	 7.0	 0.0	 0.0	 0.0	 0.0	 0.0	 0.0	 0.0	 0.0	 0.0	 0.0	 0.0	 0.0;
	834	 1.2	 0.0	 0.0	 0.0	 1.051	 100.0	 0	 2.4	 0.0	 0.0	 0.0	 0.0	 0.0	 0.0	 0.0	 0.0	 0.0	 0.0	 0.0	 0.0;
	835	 13.5	 0.0	 10.0	 -10.0	 1.047	 100.0	 1	 27.0	 0.0	 0.0	 0.0	 0.0	 0.0	 0.0	 0.0	 0.0	 0.0	 0.0	 0.0	 0.0;
	836	 10.0	 0.0	 10.0	 -10.0	 0.981	 100.0	 0	 20.0	 0.0	 0.0	 0.0	 0.0	 0.0	 0.0	 0.0	 0.0	 0.0	 0.0	 0.0	 0.0;
	838	 4.9	 -0.145	 3.14	 -3.43	 1.077	 100.0	 0	 9.8	 0.0	 0.0	 0.0	 0.0	 0.0	 0.0	 0.0	 0.0	 0.0	 0.0	 0.0	 0.0;
...
];

%% generator cost data
%	2	startup	shutdown	n	c(n-1)	...	c0
mpc.gencost = [
	2	 0.0	 0.0	 3	   0.000000	  14.982779	   0.000000;
	2	 0.0	 0.0	 3	   0.000000	  43.267320	   0.000000;
	2	 0.0	 0.0	 3	   0.000000	  58.055710	   0.000000;
	2	 0.0	 0.0	 3	   0.000000	  33.926519	   0.000000;
	2	 0.0	 0.0	 3	   0.000000	 127.889966	   0.000000;
	2	 0.0	 0.0	 3	   0.000000	  40.788422	   0.000000;
	2	 0.0	 0.0	 3	   0.000000	 136.022987	   0.000000;
	2	 0.0	 0.0	 3	   0.000000	  48.748615	   0.000000;
	2	 0.0	 0.0	 3	   0.000000	  47.272454	   0.000000;
	2	 0.0	 0.0	 3	   0.000000	  44.671216	   0.000000;
	2	 0.0	 0.0	 3	   0.000000	 138.976435	   0.000000;
	2	 0.0	 0.0	 3	   0.000000	  59.903126	   0.000000;
	2	 0.0	 0.0	 3	   0.000000	  46.457415	   0.000000;
	2	 0.0	 0.0	 3	   0.000000	  23.483598	   0.000000;
	2	 0.0	 0.0	 3	   0.000000	 101.205584	   0.000000;
	2	 0.0	 0.0	 3	   0.000000	 119.498972	   0.000000;
	2	 0.0	 0.0	 3	   0.000000	  30.264848	   0.000000;
	2	 0.0	 0.0	 3	   0.000000	  19.922885	   0.000000;
	2	 0.0	 0.0	 3	   0.000000	  39.420494	   0.000000;
	2	 0.0	 0.0	 3	   0.000000	  59.853525	   0.000000;
	2	 0.0	 0.0	 3	   0.000000	  53.413680	   0.000000;
	2	 0.0	 0.0	 3	   0.000000	  25.333990	   0.000000;
	2	 0.0	 0.0	 3	   0.000000	  44.530776	   0.000000;
	2	 0.0	 0.0	 3	   0.000000	  34.977253	   0.000000;
	2	 0.0	 0.0	 3	   0.000000	  54.070988	   0.000000;
	2	 0.0	 0.0	 3	   0.000000	  53.575941	   0.000000;
	2	 0.0	 0.0	 3	   0.000000	  53.218803	   0.000000;
	2	 0.0	 0.0	 3	   0.000000	  40.774896	   0.000000;
	2	 0.0	 0.0	 3	   0.000000	  53.250614	   0.000000;
	2	 0.0	 0.0	 3	   0.000000	 168.884910	   0.000000;
	2	 0.0	 0.0	 3	   0.000000	  49.558960	   0.000000;
	2	 0.0	 0.0	 3	   0.000000	  45.998335	   0.000000;
	2	 0.0	 0.0	 3	   0.000000	  23.867256	   0.000000;
	2	 0.0	 0.0	 3	   0.000000	 168.207302	   0.000000;
	2	 0.0	 0.0	 3	   0.000000	  47.863783	   0.000000;
	2	 0.0	 0.0	 3	   0.000000	  38.281014	   0.000000;
	2	 0.0	 0.0	 3	   0.000000	  46.970506	   0.000000;
	2	 0.0	 0.0	 3	   0.000000	 100.193081	   0.000000;
	2	 0.0	 0.0	 3	   0.000000	 134.944454	   0.000000;
	2	 0.0	 0.0	 3	   0.000000	  52.684396	   0.000000;
	2	 0.0	 0.0	 3	   0.000000	  50.715458	   0.000000;
	2	 0.0	 0.0	 3	   0.000000	  46.755410	   0.000000;
	2	 0.0	 0.0	 3	   0.000000	 151.791820	   0.000000;
	2	 0.0	 0.0	 3	   0.000000	  41.449978	   0.000000;
	2	 0.0	 0.0	 3	   0.000000	  40.816049	   0.000000;
	2	 0.0	 0.0	 3	   0.000000	  62.848215	   0.000000;
	2	 0.0	 0.0	 3	   0.000000	  54.431840	   0.000000;
	2	 0.0	 0.0	 3	   0.000000	  19.640374	   0.000000;
	2	 0.0	 0.0	 3	   0.000000	  51.720432	   0.000000;
	2	 0.0	 0.0	 3	   0.000000	  70.753380	   0.000000;
	2	 0.0	 0.0	 3	   0.000000	 121.640125	   0.000000;
	2	 0.0	 0.0	 3	   0.000000	  26.209459	   0.000000;
	2	 0.0	 0.0	 3	   0.000000	 149.260504	   0.000000;
	2	 0.0	 0.0	 3	   0.000000	 121.829335	   0.000000;
	2	 0.0	 0.0	 3	   0.000000	  45.985108	   0.000000;
	2	 0.0	 0.0	 3	   0.000000	  30.115780	   0.000000;
	2	 0.0	 0.0	 3	   0.000000	  44.334135	   0.000000;
	2	 0.0	 0.0	 3	   0.000000	 120.805501	   0.000000;
	2	 0.0	 0.0	 3	   0.000000	  57.390369	   0.000000;
	2	 0.0	 0.0	 3	   0.000000	  12.884133	   0.000000;
	2	 0.0	 0.0	 3	   0.000000	  51.265552	   0.000000;
	2	 0.0	 0.0	 3	   0.000000	  39.194889	   0.000000;
	2	 0.0	 0.0	 3	   0.000000	  55.391487	   0.000000;
	2	 0.0	 0.0	 3	   0.000000	  44.652103	   0.000000;
	2	 0.0	 0.0	 3	   0.000000	  53.901629	   0.000000;
	2	 0.0	 0.0	 3	   0.000000	 108.715718	   0.000000;
	2	 0.0	 0.0	 3	   0.000000	  55.227894	   0.000000;
	2	 0.0	 0.0	 3	   0.000000	   0.000000	   0.000000;
	2	 0.0	 0.0	 3	   0.000000	   0.000000	   0.000000;
	2	 0.0	 0.0	 3	   0.000000	 124.404412	   0.000000;
	2	 0.0	 0.0	 3	   0.000000	  35.370559	   0.000000;
	2	 0.0	 0.0	 3	   0.000000	 130.399501	   0.000000;
	2	 0.0	 0.0	 3	   0.000000	  34.405053	   0.000000;
	2	 0.0	 0.0	 3	   0.000000	  59.189321	   0.000000;
	2	 0.0	 0.0	 3	   0.000000	 116.671930	   0.000000;
	2	 0.0	 0.0	 3	   0.000000	 138.103538	   0.000000;
	2	 0.0	 0.0	 3	   0.000000	 133.659403	   0.000000;
	2	 0.0	 0.0	 3	   0.000000	 111.713387	   0.000000;
	2	 0.0	 0.0	 3	   0.000000	 135.219456	   0.000000;
	2	 0.0	 0.0	 3	   0.000000	  17.295744	   0.000000;
	2	 0.0	 0.0	 3	   0.000000	  61.776630	   0.000000;
	2	 0.0	 0.0	 3	   0.000000	  45.178855	   0.000000;
	2	 0.0	 0.0	 3	   0.000000	 124.834755	   0.000000;
	2	 0.0	 0.0	 3	   0.000000	  52.300665	   0.000000;
	2	 0.0	 0.0	 3	   0.000000	  34.757194	   0.000000;
	2	 0.0	 0.0	 3	   0.000000	  45.495476	   0.000000;
	2	 0.0	 0.0	 3	   0.000000	  34.437003	   0.000000;
	2	 0.0	 0.0	 3	   0.000000	  41.312826	   0.000000;
	2	 0.0	 0.0	 3	   0.000000	  41.951637	   0.000000;
	2	 0.0	 0.0	 3	   0.000000	 104.488962	   0.000000;
	2	 0.0	 0.0	 3	   0.000000	  52.338627	   0.000000;
	2	 0.0	 0.0	 3	   0.000000	  29.292566	   0.000000;
	2	 0.0	 0.0	 3	   0.000000	  46.048615	   0.000000;
	2	 0.0	 0.0	 3	   0.000000	  47.323846	   0.000000;
	2	 0.0	 0.0	 3	   0.000000	  57.597614	   0.000000;
	2	 0.0	 0.0	 3	   0.000000	  41.948226	   0.000000;
	2	 0.0	 0.0	 3	   0.000000	  46.189487	   0.000000;
	2	 0.0	 0.0	 3	   0.000000	  30.628198	   0.000000;
	2	 0.0	 0.0	 3	   0.000000	 141.077595	   0.000000;
	2	 0.0	 0.0	 3	   0.000000	 120.832516	   0.000000;
	2	 0.0	 0.0	 3	   0.000000	  51.184656	   0.000000;
	2	 0.0	 0.0	 3	   0.000000	 160.380430	   0.000000;
	2	 0.0	 0.0	 3	   0.000000	  27.209992	   0.000000;
	2	 0.0	 0.0	 3	   0.000000	  22.475631	   0.000000;
	2	 0.0	 0.0	 3	   0.000000	  16.481840	   0.000000;
	2	 0.0	 0.0	 3	   0.000000	  30.748805	   0.000000;
	2	 0.0	 0.0	 3	   0.000000	  55.955464	   0.000000;
	2	 0.0	 0.0	 3	   0.000000	 122.415732	   0.000000;
	2	 0.0	 0.0	 3	   0.000000	  57.893330	   0.000000;
	2	 0.0	 0.0	 3	   0.000000	  46.147156	   0.000000;
	2	 0.0	 0.0	 3	   0.000000	  34.352035	   0.000000;
	2	 0.0	 0.0	 3	   0.000000	 147.237733	   0.000000;
	2	 0.0	 0.0	 3	   0.000000	  59.127493	   0.000000;
	2	 0.0	 0.0	 3	   0.000000	 100.578798	   0.000000;
	2	 0.0	 0.0	 3	   0.000000	  46.093077	   0.000000;
	2	 0.0	 0.0	 3	   0.000000	  50.578376	   0.000000;
	2	 0.0	 0.0	 3	   0.000000	 105.571942	   0.000000;
	2	 0.0	 0.0	 3	   0.000000	 142.404284	   0.000000;
	2	 0.0	 0.0	 3	   0.000000	 130.104634	   0.000000;
	2	 0.0	 0.0	 3	   0.000000	  45.516716	   0.000000;
	2	 0.0	 0.0	 3	   0.000000	  60.257008	   0.000000;
	2	 0.0	 0.0	 3	   0.000000	  53.588046	   0.000000;
	2	 0.0	 0.0	 3	   0.000000	  55.188417	   0.000000;
	2	 0.0	 0.0	 3	   0.000000	  48.725387	   0.000000;
	2	 0.0	 0.0	 3	   0.000000	  48.822408	   0.000000;
	2	 0.0	 0.0	 3	   0.000000	 125.037993	   0.000000;
	2	 0.0	 0.0	 3	   0.000000	 134.004050	   0.000000;
	2	 0.0	 0.0	 3	   0.000000	  24.246459	   0.000000;
	2	 0.0	 0.0	 3	   0.000000	  42.660529	   0.000000;
	2	 0.0	 0.0	 3	   0.000000	  43.639646	   0.000000;
	2	 0.0	 0.0	 3	   0.000000	  33.315814	   0.000000;
	2	 0.0	 0.0	 3	   0.000000	  46.376022	   0.000000;
	2	 0.0	 0.0	 3	   0.000000	  48.667324	   0.000000;
	2	 0.0	 0.0	 3	   0.000000	 133.578495	   0.000000;
	2	 0.0	 0.0	 3	   0.000000	  57.833642	   0.000000;
	2	 0.0	 0.0	 3	   0.000000	 163.437694	   0.000000;
	2	 0.0	 0.0	 3	   0.000000	  43.305262	   0.000000;
	2	 0.0	 0.0	 3	   0.000000	  43.472932	   0.000000;
	2	 0.0	 0.0	 3	   0.000000	  23.563590	   0.000000;
	2	 0.0	 0.0	 3	   0.000000	 121.630744	   0.000000;
	2	 0.0	 0.0	 3	   0.000000	  54.506941	   0.000000;
	2	 0.0	 0.0	 3	   0.000000	 142.635853	   0.000000;
	2	 0.0	 0.0	 3	   0.000000	  57.883408	   0.000000;
	2	 0.0	 0.0	 3	   0.000000	  63.706371	   0.000000;
	2	 0.0	 0.0	 3	   0.000000	  31.326561	   0.000000;
	2	 0.0	 0.0	 3	   0.000000	  59.405807	   0.000000;
	2	 0.0	 0.0	 3	   0.000000	  62.869229	   0.000000;
	2	 0.0	 0.0	 3	   0.000000	  35.583780	   0.000000;
	2	 0.0	 0.0	 3	   0.000000	  26.660603	   0.000000;
	2	 0.0	 0.0	 3	   0.000000	  53.435313	   0.000000;
	2	 0.0	 0.0	 3	   0.000000	  48.335536	   0.000000;
	2	 0.0	 0.0	 3	   0.000000	 127.209114	   0.000000;
	2	 0.0	 0.0	 3	   0.000000	  59.507741	   0.000000;
	2	 0.0	 0.0	 3	   0.000000	  34.863515	   0.000000;
	2	 0.0	 0.0	 3	   0.000000	  45.631075	   0.000000;
	2	 0.0	 0.0	 3	   0.000000	 127.170253	   0.000000;
	2	 0.0	 0.0	 3	   0.000000	 156.022141	   0.000000;
	2	 0.0	 0.0	 3	   0.000000	 131.415850	   0.000000;
	2	 0.0	 0.0	 3	   0.000000	  53.922763	   0.000000;
	2	 0.0	 0.0	 3	   0.000000	  44.833565	   0.000000;
	2	 0.0	 0.0	 3	   0.000000	  36.447484	   0.000000;
	2	 0.0	 0.0	 3	   0.000000	  46.066841	   0.000000;
	2	 0.0	 0.0	 3	   0.000000	 132.495021	   0.000000;
	2	 0.0	 0.0	 3	   0.000000	  52.386548	   0.000000;
	2	 0.0	 0.0	 3	   0.000000	  59.840915	   0.000000;
	2	 0.0	 0.0	 3	   0.000000	  51.436564	   0.000000;
	2	 0.0	 0.0	 3	   0.000000	  40.956843	   0.000000;
	2	 0.0	 0.0	 3	   0.000000	 128.976310	   0.000000;
	2	 0.0	 0.0	 3	   0.000000	 112.355581	   0.000000;
	2	 0.0	 0.0	 3	   0.000000	  49.430100	   0.000000;
	2	 0.0	 0.0	 3	   0.000000	 137.290997	   0.000000;
	2	 0.0	 0.0	 3	   0.000000	  37.881338	   0.000000;
	2	 0.0	 0.0	 3	   0.000000	 142.020084	   0.000000;
	2	 0.0	 0.0	 3	   0.000000	  42.337301	   0.000000;
	2	 0.0	 0.0	 3	   0.000000	  92.730328	   0.000000;
	2	 0.0	 0.0	 3	   0.000000	 136.581091	   0.000000;
	2	 0.0	 0.0	 3	   0.000000	  39.140719	   0.000000;
	2	 0.0	 0.0	 3	   0.000000	  43.577457	   0.000000;
	2	 0.0	 0.0	 3	   0.000000	 126.481390	   0.000000;
	2	 0.0	 0.0	 3	   0.000000	  15.623819	   0.000000;
	2	 0.0	 0.0	 3	   0.000000	  45.535709	   0.000000;
	2	 0.0	 0.0	 3	   0.000000	 143.841600	   0.000000;
	2	 0.0	 0.0	 3	   0.000000	  61.615401	   0.000000;
	2	 0.0	 0.0	 3	   0.000000	  65.923435	   0.000000;
	2	 0.0	 0.0	 3	   0.000000	  29.690293	   0.000000;
	2	 0.0	 0.0	 3	   0.000000	  44.548614	   0.000000;
	2	 0.0	 0.0	 3	   0.000000	 102.184697	   0.000000;
	2	 0.0	 0.0	 3	   0.000000	  35.028690	   0.000000;
	2	 0.0	 0.0	 3	   0.000000	  47.833649	   0.000000;
	2	 0.0	 0.0	 3	   0.000000	 109.990102	   0.000000;
	2	 0.0	 0.0	 3	   0.000000	  47.034720	   0.000000;
	2	 0.0	 0.0	 3	   0.000000	 105.794429	   0.000000;
	2	 0.0	 0.0	 3	   0.000000	  41.834511	   0.000000;
	2	 0.0	 0.0	 3	   0.000000	  41.835354	   0.000000;
	2	 0.0	 0.0	 3	   0.000000	  49.745449	   0.000000;
	2	 0.0	 0.0	 3	   0.000000	  49.707502	   0.000000;
	2	 0.0	 0.0	 3	   0.000000	 144.451653	   0.000000;
	2	 0.0	 0.0	 3	   0.000000	  14.249492	   0.000000;
	2	 0.0	 0.0	 3	   0.000000	 136.278316	   0.000000;
	2	 0.0	 0.0	 3	   0.000000	 136.686460	   0.000000;
...
];

%% branch data
%	fbus	tbus	r	x	b	rateA	rateB	rateC	ratio	angle	status	angmin	angmax
mpc.branch = [
	4647	 1	 0.005726	 0.010482	 0.0	 2186.0	 2186.0	 2186.0	 1.0	 0.0	 1	 -17.887052	 17.887052;
	5244	 1	 0.01284	 0.025679	 0.0	 910.0	 910.0	 910.0	 1.0	 0.0	 1	 -17.887052	 17.887052;
	1682	 2	 0.005799	 0.010615	 0.0075	 2441.0	 2441.0	 2441.0	 1.0	 0.0	 1	 -17.887052	 17.887052;
	1673	 3	 0.134039	 0.309398	 0.0035	 91.0	 91.0	 91.0	 1.0	 0.0	 1	 -17.887052	 17.887052;
	2303	 3	 0.049131	 0.133283	 0.0015	 215.0	 215.0	 215.0	 1.0	 0.0	 1	 -17.887052	 17.887052;
	700	 4	 0.025926	 0.109136	 0.0002	 281.0	 281.0	 281.0	 1.0	 0.0	 1	 -17.887052	 17.887052;
	3939	 4	 0.05	 0.126914	 0.0006	 226.0	 226.0	 226.0	 1.0	 0.0	 1	 -17.887052	 17.887052;
	5046	 4	 0.02321	 0.097407	 0.0016	 315.0	 315.0	 315.0	 1.0	 0.0	 1	 -17.887052	 17.887052;
	4413	 5	 0.040564	 0.113631	 0.0013	 245.0	 245.0	 245.0	 1.0	 0.0	 1	 -17.887052	 17.887052;
	2779	 6	 0.006047	 0.020912	 0.0222	 1398.0	 1398.0	 1398.0	 1.0	 0.0	 1	 -17.887052	 17.887052;
	2780	 7	 0.012472	 0.032099	 0.0061	 884.0	 884.0	 884.0	 1.0	 0.0	 1	 -17.887052	 17.887052;
	2466	 8	 0.002607	 0.017462	 0.0324	 540.0	 540.0	 540.0	 1.0	 0.0	 1	 -17.887052	 17.887052;
	470	 9	 0.053893	 0.14258	 0.0017	 194.0	 194.0	 194.0	 1.0	 0.0	 1	 -17.887052	 17.887052;
	11	 10	 0.000247	 0.001235	 0.0005	 24078.0	 24078.0	 24078.0	 1.0	 0.0	 1	 -17.887052	 17.887052;
	11	 10	 0.000247	 0.001235	 0.0002	 24078.0	 24078.0	 24078.0	 1.0	 0.0	 1	 -17.887052	 17.887052;
	30	 11	 0.039753	 0.100988	 0.0047	 284.0	 284.0	 284.0	 1.0	 0.0	 1	 -17.887052	 17.887052;
	2929	 11	 0.037654	 0.096173	 0.001	 294.0	 294.0	 294.0	 1.0	 0.0	 1	 -17.887052	 17.887052;
	2181	 12	 0.014613	 0.060721	 0.0008	 487.0	 487.0	 487.0	 1.0	 0.0	 1	 -17.887052	 17.887052;
	4017	 12	 0.034064	 0.121139	 0.0015	 242.0	 242.0	 242.0	 1.0	 0.0	 1	 -17.887052	 17.887052;
	4019	 12	 0.000242	 0.000442	 0.0004	 60355.0	 60355.0	 60355.0	 1.0	 0.0	 1	 -17.887052	 17.887052;
	115	 13	 2.1e-05	 0.000125	 0.1386	 737.0	 737.0	 737.0	 1.0	 0.0	 1	 -17.887052	 17.887052;
	2337	 13	 0.000145	 0.001877	 0.0635	 2487.0	 2487.0	 2487.0	 1.0	 0.0	 1	 -17.887052	 17.887052;
	4577	 13	 0.000319	 0.003234	 0.0838	 1841.0	 1841.0	 1841.0	 1.0	 0.0	 1	 -17.887052	 17.887052;
	116	 13	 2.1e-05	 0.000125	 0.1386	 737.0	 737.0	 737.0	 1.0	 0.0	 1	 -17.887052	 17.887052;
	1225	 14	 0.04	 0.134198	 0.0274	 217.0	 217.0	 217.0	 1.0	 0.0	 1	 -17.887052	 17.887052;
	2874	 14	 0.012222	 0.052346	 0.0026	 565.0	 565.0	 565.0	 1.0	 0.0	 1	 -17.887052	 17.887052;
	4595	 14	 0.007284	 0.045432	 0.0024	 660.0	 660.0	 660.0	 1.0	 0.0	 1	 -17.887052	 17.887052;
	4955	 14	 0.059963	 0.154222	 0.0236	 184.0	 184.0	 184.0	 1.0	 0.0	 1	 -17.887052	 17.887052;
	5230	 14	 0.018025	 0.110988	 0.0073	 270.0	 270.0	 270.0	 1.0	 0.0	 1	 -17.887052	 17.887052;
	2874	 14	 0.012222	 0.052593	 0.0032	 562.0	 562.0	 562.0	 1.0	 0.0	 1	 -17.887052	 17.887052;
	4595	 14	 0.007284	 0.044938	 0.0024	 667.0	 667.0	 667.0	 1.0	 0.0	 1	 -17.887052	 17.887052;
	2906	 15	 0.037541	 0.100529	 0.0011	 284.0	 284.0	 284.0	 1.0	 0.0	 1	 -17.887052	 17.887052;
	4124	 15	 0.090199	 0.211388	 0.0023	 133.0	 133.0	 133.0	 1.0	 0.0	 1	 -17.887052	 17.887052;
	4455	 15	 0.09801	 0.267574	 0.0	 107.0	 107.0	 107.0	 1.0	 0.0	 1	 -17.887052	 17.887052;
	249	 16	 0.071806	 0.191484	 0.0019	 149.0	 149.0	 149.0	 1.0	 0.0	 1	 -17.887052	 17.887052;
	337	 16	 0.119174	 0.284958	 0.0044	 99.0	 99.0	 99.0	 1.0	 0.0	 1	 -17.887052	 17.887052;
	5834	 17	 0.022346	 0.061111	 0.0029	 457.0	 457.0	 457.0	 1.0	 0.0	 1	 -17.887052	 17.887052;
	3727	 18	 0.009383	 0.019753	 0.0	 1194.0	 1194.0	 1194.0	 1.0	 0.0	 1	 -17.887052	 17.887052;
	5094	 19	 0.000252	 0.000504	 0.0	 52398.0	 52398.0	 52398.0	 1.0	 0.0	 1	 -17.887052	 17.887052;
	3727	 20	 0.001975	 0.004444	 0.0	 5369.0	 5369.0	 5369.0	 1.0	 0.0	 1	 -17.887052	 17.887052;
	1354	 21	 0.036296	 0.099012	 0.0045	 282.0	 282.0	 282.0	 1.0	 0.0	 1	 -17.887052	 17.887052;
	1598	 21	 0.032716	 0.089136	 0.0057	 313.0	 313.0	 313.0	 1.0	 0.0	 1	 -17.887052	 17.887052;
	1843	 22	 0.138574	 0.351474	 0.0058	 81.0	 81.0	 81.0	 1.0	 0.0	 1	 -17.887052	 17.887052;
	5023	 22	 0.094407	 0.210456	 0.0044	 132.0	 132.0	 132.0	 1.0	 0.0	 1	 -17.887052	 17.887052;
	1157	 23	 0.047115	 0.117158	 0.001	 234.0	 234.0	 234.0	 1.0	 0.0	 1	 -17.887052	 17.887052;
	2703	 23	 0.039557	 0.120937	 0.0132	 233.0	 233.0	 233.0	 1.0	 0.0	 1	 -17.887052	 17.887052;
	3425	 23	 0.022676	 0.062484	 0.0007	 445.0	 445.0	 445.0	 1.0	 0.0	 1	 -17.887052	 17.887052;
	144	 24	 0.064568	 0.16716	 0.0113	 180.0	 180.0	 180.0	 1.0	 0.0	 1	 -17.887052	 17.887052;
	1282	 24	 0.048605	 0.128481	 0.0062	 235.0	 235.0	 235.0	 1.0	 0.0	 1	 -17.887052	 17.887052;
	490	 25	 0.004815	 0.02963	 0.0016	 1048.0	 1048.0	 1048.0	 1.0	 0.0	 1	 -17.887052	 17.887052;
	2093	 25	 0.007309	 0.04463	 0.0073	 710.0	 710.0	 710.0	 1.0	 0.0	 1	 -17.887052	 17.887052;
	612	 26	 0.034321	 0.145802	 0.0073	 199.0	 199.0	 199.0	 1.0	 0.0	 1	 -17.887052	 17.887052;
	1866	 26	 0.004815	 0.009753	 0.0005	 2731.0	 2731.0	 2731.0	 1.0	 0.0	 1	 -17.887052	 17.887052;
	2602	 26	 0.049012	 0.133704	 0.0063	 209.0	 209.0	 209.0	 1.0	 0.0	 1	 -17.887052	 17.887052;
	2922	 26	 0.04642	 0.126543	 0.0058	 221.0	 221.0	 221.0	 1.0	 0.0	 1	 -17.887052	 17.887052;
	3339	 26	 0.046296	 0.125926	 0.006	 222.0	 222.0	 222.0	 1.0	 0.0	 1	 -17.887052	 17.887052;
	4632	 26	 0.053704	 0.136753	 0.0065	 203.0	 203.0	 203.0	 1.0	 0.0	 1	 -17.887052	 17.887052;
	2922	 26	 0.03358	 0.120988	 0.0062	 237.0	 237.0	 237.0	 1.0	 0.0	 1	 -17.887052	 17.887052;
	536	 27	 0.006163	 0.041067	 0.0759	 446.0	 446.0	 446.0	 1.0	 0.0	 1	 -17.887052	 17.887052;
	2350	 27	 0.000652	 0.004369	 0.0081	 558.0	 558.0	 558.0	 1.0	 0.0	 1	 -17.887052	 17.887052;
	2684	 28	 0.050945	 0.131922	 0.0015	 216.0	 216.0	 216.0	 1.0	 0.0	 1	 -17.887052	 17.887052;
	3892	 28	 0.058781	 0.149005	 0.0017	 190.0	 190.0	 190.0	 1.0	 0.0	 1	 -17.887052	 17.887052;
	2887	 29	 0.067019	 0.137566	 0.0037	 193.0	 193.0	 193.0	 1.0	 0.0	 1	 -17.887052	 17.887052;
	3321	 29	 0.032754	 0.088939	 0.0039	 312.0	 312.0	 312.0	 1.0	 0.0	 1	 -17.887052	 17.887052;
	3321	 29	 0.030184	 0.080096	 0.0053	 345.0	 345.0	 345.0	 1.0	 0.0	 1	 -17.887052	 17.887052;
	144	 30	 0.066049	 0.187778	 0.0099	 161.0	 161.0	 161.0	 1.0	 0.0	 1	 -17.887052	 17.887052;
	1553	 30	 0.065062	 0.133704	 0.0062	 212.0	 212.0	 212.0	 1.0	 0.0	 1	 -17.887052	 17.887052;
	4841	 30	 0.041728	 0.106049	 0.005	 281.0	 281.0	 281.0	 1.0	 0.0	 1	 -17.887052	 17.887052;
	150	 31	 0.009574	 0.03875	 0.0114	 740.0	 740.0	 740.0	 1.0	 0.0	 1	 -17.887052	 17.887052;
	3162	 31	 0.000171	 0.000313	 0.0002	 82782.0	 82782.0	 82782.0	 1.0	 0.0	 1	 -17.887052	 17.887052;
	3692	 31	 0.034266	 0.09423	 0.001	 295.0	 295.0	 295.0	 1.0	 0.0	 1	 -17.887052	 17.887052;
	4741	 31	 0.006803	 0.028219	 0.0	 1018.0	 1018.0	 1018.0	 1.0	 0.0	 1	 -17.887052	 17.887052;
	150	 31	 0.008566	 0.037541	 0.0121	 767.0	 767.0	 767.0	 1.0	 0.0	 1	 -17.887052	 17.887052;
	3729	 32	 0.009733	 0.034089	 0.0185	 902.0	 902.0	 902.0	 1.0	 0.0	 1	 -17.887052	 17.887052;
	366	 34	 0.000277	 0.002015	 0.003	 288.0	 288.0	 288.0	 1.0	 0.0	 1	 -17.887052	 17.887052;
	1017	 33	 0.00881	 0.033995	 0.0607	 289.0	 289.0	 289.0	 1.0	 0.0	 1	 -17.887052	 17.887052;
	1158	 33	 0.004642	 0.019832	 0.0354	 255.0	 255.0	 255.0	 1.0	 0.0	 1	 -17.887052	 17.887052;
	2580	 34	 0.008861	 0.03506	 0.0623	 288.0	 288.0	 288.0	 1.0	 0.0	 1	 -17.887052	 17.887052;
	2704	 34	 0.006993	 0.032869	 0.0557	 255.0	 255.0	 255.0	 1.0	 0.0	 1	 -17.887052	 17.887052;
	4746	 33	 0.002173	 0.008731	 0.0152	 3441.0	 3441.0	 3441.0	 1.0	 0.0	 1	 -17.887052	 17.887052;
	4858	 34	 0.00077	 0.003121	 0.0051	 9629.0	 9629.0	 9629.0	 1.0	 0.0	 1	 -17.887052	 17.887052;
	5671	 33	 0.004109	 0.016138	 0.0284	 288.0	 288.0	 288.0	 1.0	 0.0	 1	 -17.887052	 17.887052;
	368	 35	 8.3e-05	 0.000907	 0.0202	 1034.0	 1034.0	 1034.0	 1.0	 0.0	 1	 -17.887052	 17.887052;
	1109	 35	 0.000552	 0.006726	 0.0939	 1786.0	 1786.0	 1786.0	 1.0	 0.0	 1	 -17.887052	 17.887052;
	2150	 35	 0.000512	 0.008012	 0.2455	 2462.0	 2462.0	 2462.0	 1.0	 0.0	 1	 -17.887052	 17.887052;
	3135	 35	 0.001107	 0.00918	 0.1906	 1644.0	 1644.0	 1644.0	 1.0	 0.0	 1	 -17.887052	 17.887052;
...